1
    SWAT  Sept '05 VERSION2005                                                                           0/ 0/   0      0: 0: 0

    General Input/Output section (file.cio):                                        
    Sun Sep 17 22:23:55 2006 AVSWATX2003 MDL                                        
                                                                                    


LULC HRU      GIS  SUB  MGT  MON   AREAkm2  PRECIPmm SNOFALLmm SNOMELTmm     IRRmm     PETmm      ETmm SW_INITmm  SW_ENDmm    PERCmm GW_RCHGmm DA_RCHGmm   REVAPmm  SA_IRRmm  DA_IRRmm   SA_STmm   DA_STmmSURQ_GENmmSURQ_CNTmm   TLOSSmm    LATQmm    GW_Qmm    WYLDmm   DAILYCN TMP_AVdgC TMP_MXdgC TMP_MNdgCSOL_TMPdgCSOLARMJ/m2  SYLDt/ha  USLEt/haN_APPkg/haP_APPkg/haNAUTOkg/haPAUTOkg/ha NGRZkg/ha PGRZkg/haNCFRTkg/haPCFRTkg/haNRAINkg/ha NFIXkg/ha F-MNkg/ha A-MNkg/ha A-SNkg/ha F-MPkg/haAO-LPkg/ha L-APkg/ha A-SPkg/ha DNITkg/ha  NUPkg/ha  PUPkg/ha ORGNkg/ha ORGPkg/ha SEDPkg/haNSURQkg/haNLATQkg/ha NO3Lkg/haNO3GWkg/ha SOLPkg/ha P_GWkg/ha    W_STRS  TMP_STRS    N_STRS    P_STRS  BIOMt/ha       LAI   YLDt/ha   BACTPct  BACTLPct
RICE   1        0    1    0    4.40501E+03     0.000     0.000     0.000     0.000   191.108    48.737   487.387   463.780     0.000     0.000     0.000     0.000     0.000     0.000     0.500  1000.000     0.000     0.000     0.000     0.000     0.000     0.000    82.477    29.981    35.365    24.597    29.007    27.701     0.000     0.000     0.000     0.000     0.000     0.000     0.000     0.000     0.000     0.000     0.000     0.000     0.000     0.747    -0.005     0.000     0.128     0.065     0.002     0.000     0.000     0.000     0.000     0.000     0.000     0.000     0.000     0.000     0.000     0.000     0.000     0.000     0.000     0.000     0.000     0.000     0.000     0.000     0.000     0.000
RICE   2        0    1    0    4.47315E+02     0.000     0.000     0.000     0.000   191.108    48.187   436.411   413.078     0.000     0.000     0.000     0.000     0.000     0.000     0.500  1000.000     0.000     0.000     0.000     0.000     0.000     0.000    82.782    29.981    35.365    24.597    29.067    27.701     0.000     0.000     0.000     0.000     0.000     0.000     0.000     0.000     0.000     0.000     0.000     0.000     0.000     8.648    -0.062     0.000     1.483     0.751     0.022     0.000     0.000     0.000     0.000     0.000     0.000     0.000     0.000     0.000     0.000     0.000     0.000     0.000     0.000     0.000     0.000     0.000     0.000     0.000     0.000     0.000
AGRR   3        0    1    0    4.37035E+02     0.000     0.000     0.000     0.000   191.108    48.737   487.387   463.780     0.000     0.000     0.000     0.000     0.000     0.000     0.500  1000.000     0.000     0.000     0.000     0.000     0.000     0.000    89.961    29.981    35.365    24.597    29.007    27.701     0.000     0.000     0.000     0.000     0.000     0.000     0.000     0.000     0.000     0.000     0.000     0.000     0.000     0.747    -0.005     0.000     0.128     0.065     0.002     0.000     0.000     0.000     0.000     0.000     0.000     0.000     0.000     0.000     0.000     0.000     0.000     0.000     0.000     0.000     0.000     0.000     0.000     0.000     0.000     0.000
AGRR   4        0    1    0    4.22097E+02     0.000     0.000     0.000     0.000   191.108    48.737   487.387   463.780     0.000     0.000     0.000     0.000     0.000     0.000     0.500  1000.000     0.000     0.000     0.000     0.000     0.000     0.000    81.407    29.981    35.365    24.597    29.111    27.701     0.000     0.000     0.000     0.000     0.000     0.000     0.000     0.000     0.000     0.000     0.000     0.000     0.000     5.868    -0.042     0.000     1.006     0.509     0.015     0.000     0.000     0.000     0.000     0.000     0.000     0.000     0.000     0.000     0.000     0.000     0.000     0.000     0.000     0.000     0.000     0.000     0.000     0.000     0.000     0.000
AGRR   5        0    1    0    4.25551E+02     0.000     0.000     0.000     0.000   191.108    48.187   436.411   413.078     0.000     0.000     0.000     0.000     0.000     0.000     0.500  1000.000     0.000     0.000     0.000     0.000     0.000     0.000    87.651    29.981    35.365    24.597    29.067    27.701     0.000     0.000     0.000     0.000     0.000     0.000     0.000     0.000     0.000     0.000     0.000     0.000     0.000     8.648    -0.062     0.000     1.483     0.751     0.022     0.000     0.000     0.000     0.000     0.000     0.000     0.000     0.000     0.000     0.000     0.000     0.000     0.000     0.000     0.000     0.000     0.000     0.000     0.000     0.000     0.000
BERM   6        0    1    0    4.79432E+01     0.000     0.000     0.000     0.000   191.108    48.737   487.387   463.780     0.000     0.000     0.000     0.000     0.000     0.000     0.500  1000.000     0.000     0.000     0.000     0.000     0.000     0.000    86.438    29.981    35.365    24.597    29.007    27.701     0.000     0.000     0.000     0.000     0.000     0.000     0.000     0.000     0.000     0.000     0.000     0.000     0.000     0.747    -0.005     0.000     0.128     0.065     0.002     0.000     0.000     0.000     0.000     0.000     0.000     0.000     0.000     0.000     0.000     0.000     0.000     0.000     0.000     0.000     0.000     0.000     0.000     0.000     0.000     0.000
BERM   7        0    1    0    4.32862E+02     0.000     0.000     0.000     0.000   191.108    48.187   436.411   413.078     0.000     0.000     0.000     0.000     0.000     0.000     0.500  1000.000     0.000     0.000     0.000     0.000     0.000     0.000    86.640    29.981    35.365    24.597    29.067    27.701     0.000     0.000     0.000     0.000     0.000     0.000     0.000     0.000     0.000     0.000     0.000     0.000     0.000     8.648    -0.062     0.000     1.483     0.751     0.022     0.000     0.000     0.000     0.000     0.000     0.000     0.000     0.000     0.000     0.000     0.000     0.000     0.000     0.000     0.000     0.000     0.000     0.000     0.000     0.000     0.000
FRSD   8        0    2    0    4.20610E+02     0.000     0.000     0.000     0.000   191.147    48.746   487.383   463.771     0.000     0.000     0.000     0.000     0.000     0.000     0.500  1000.000     0.000     0.000     0.000     0.000     0.000     0.000    80.922    29.981    35.365    24.597    29.007    27.702     0.000     0.000     0.000     0.000     0.000     0.000     0.000     0.000     0.000     0.000     0.000     0.000     0.000     0.747    -0.005     0.000     0.128     0.065     0.002     0.000     0.000     0.000     0.000     0.000     0.000     0.000     0.000     0.000     0.000     0.000     0.000     0.000     0.000     0.000     0.000     0.000     0.000     0.000     0.000     0.000
FRSD   9        0    2    0    4.34895E+02     0.000     0.000     0.000     0.000   191.147    36.885    74.657    58.297     0.000     0.000     0.000     0.000     0.000     0.000     0.500  1000.000     0.000     0.000     0.000     0.000     0.000     0.000    28.816    29.981    35.365    24.597    31.164    27.702     0.000     0.000     0.000     0.000     0.000     0.000     0.000     0.000     0.000     0.000     0.000     0.000     0.000     0.285    -0.002     0.000     0.049     0.025     0.001     0.000     0.000     0.000     0.000     0.000     0.000     0.000     0.000     0.000     0.000     0.000     0.000     0.000     0.000     0.000     0.000     0.000     0.000     0.000     0.000     0.000
FRSD  10        0    2    0    4.15594E+02     0.000     0.000     0.000     0.000   191.147    48.196   436.407   413.069     0.000     0.000     0.000     0.000     0.000     0.000     0.500  1000.000     0.000     0.000     0.000     0.000     0.000     0.000    77.644    29.981    35.365    24.597    29.067    27.702     0.000     0.000     0.000     0.000     0.000     0.000     0.000     0.000     0.000     0.000     0.000     0.000     0.000     8.648    -0.062     0.000     1.483     0.751     0.022     0.000     0.000     0.000     0.000     0.000     0.000     0.000     0.000     0.000     0.000     0.000     0.000     0.000     0.000     0.000     0.000     0.000     0.000     0.000     0.000     0.000
FRSD  11        0    2    0    4.40513E+01     0.000     0.000     0.000     0.000   191.147    46.358   309.129   286.778     0.000     0.000     0.000     0.000     0.000     0.000     0.500  1000.000     0.000     0.000     0.000     0.000     0.000     0.000    50.061    29.981    35.365    24.597    29.008    27.702     0.000     0.000     0.000     0.000     0.000     0.000     0.000     0.000     0.000     0.000     0.000     0.000     0.000     3.770    -0.027     0.000     0.647     0.328     0.010     0.000     0.000     0.000     0.000     0.000     0.000     0.000     0.000     0.000     0.000     0.000     0.000     0.000     0.000     0.000     0.000     0.000     0.000     0.000     0.000     0.000
RICE  12        0    2    0    4.18542E+03     0.000     0.000     0.000     0.000   191.147    48.746   487.383   463.771     0.000     0.000     0.000     0.000     0.000     0.000     0.500  1000.000     0.000     0.000     0.000     0.000     0.000     0.000    82.476    29.981    35.365    24.597    29.007    27.702     0.000     0.000     0.000     0.000     0.000     0.000     0.000     0.000     0.000     0.000     0.000     0.000     0.000     0.747    -0.005     0.000     0.128     0.065     0.002     0.000     0.000     0.000     0.000     0.000     0.000     0.000     0.000     0.000     0.000     0.000     0.000     0.000     0.000     0.000     0.000     0.000     0.000     0.000     0.000     0.000
RICE  13        0    2    0    4.28235E+02     0.000     0.000     0.000     0.000   191.147    48.196   436.407   413.069     0.000     0.000     0.000     0.000     0.000     0.000     0.500  1000.000     0.000     0.000     0.000     0.000     0.000     0.000    82.782    29.981    35.365    24.597    29.067    27.702     0.000     0.000     0.000     0.000     0.000     0.000     0.000     0.000     0.000     0.000     0.000     0.000     0.000     8.648    -0.062     0.000     1.483     0.751     0.022     0.000     0.000     0.000     0.000     0.000     0.000     0.000     0.000     0.000     0.000     0.000     0.000     0.000     0.000     0.000     0.000     0.000     0.000     0.000     0.000     0.000
AGRR  14        0    2    0    4.32822E+02     0.000     0.000     0.000     0.000   191.147    48.746   487.383   463.771     0.000     0.000     0.000     0.000     0.000     0.000     0.500  1000.000     0.000     0.000     0.000     0.000     0.000     0.000    89.961    29.981    35.365    24.597    29.007    27.702     0.000     0.000     0.000     0.000     0.000     0.000     0.000     0.000     0.000     0.000     0.000     0.000     0.000     0.747    -0.005     0.000     0.128     0.065     0.002     0.000     0.000     0.000     0.000     0.000     0.000     0.000     0.000     0.000     0.000     0.000     0.000     0.000     0.000     0.000     0.000     0.000     0.000     0.000     0.000     0.000
AGRR  15        0    2    0    4.61802E+01     0.000     0.000     0.000     0.000   191.147    36.885    74.657    58.297     0.000     0.000     0.000     0.000     0.000     0.000     0.500  1000.000     0.000     0.000     0.000     0.000     0.000     0.000    56.091    29.981    35.365    24.597    31.164    27.702     0.000     0.000     0.000     0.000     0.000     0.000     0.000     0.000     0.000     0.000     0.000     0.000     0.000     0.285    -0.002     0.000     0.049     0.025     0.001     0.000     0.000     0.000     0.000     0.000     0.000     0.000     0.000     0.000     0.000     0.000     0.000     0.000     0.000     0.000     0.000     0.000     0.000     0.000     0.000     0.000
AGRR  16        0    2    0    4.31750E+02     0.000     0.000     0.000     0.000   191.147    48.196   436.407   413.069     0.000     0.000     0.000     0.000     0.000     0.000     0.500  1000.000     0.000     0.000     0.000     0.000     0.000     0.000    87.651    29.981    35.365    24.597    29.067    27.702     0.000     0.000     0.000     0.000     0.000     0.000     0.000     0.000     0.000     0.000     0.000     0.000     0.000     8.648    -0.062     0.000     1.483     0.751     0.022     0.000     0.000     0.000     0.000     0.000     0.000     0.000     0.000     0.000     0.000     0.000     0.000     0.000     0.000     0.000     0.000     0.000     0.000     0.000     0.000     0.000
AGRR  17        0    2    0    4.74645E+01     0.000     0.000     0.000     0.000   191.147    48.746   487.383   463.771     0.000     0.000     0.000     0.000     0.000     0.000     0.500  1000.000     0.000     0.000     0.000     0.000     0.000     0.000    81.407    29.981    35.365    24.597    29.111    27.702     0.000     0.000     0.000     0.000     0.000     0.000     0.000     0.000     0.000     0.000     0.000     0.000     0.000     5.868    -0.042     0.000     1.006     0.509     0.015     0.000     0.000     0.000     0.000     0.000     0.000     0.000     0.000     0.000     0.000     0.000     0.000     0.000     0.000     0.000     0.000     0.000     0.000     0.000     0.000     0.000
RICE   1        0    1    0    5.40501E+03   310.000     0.000     0.000     0.000   139.941   110.964   561.509   654.191     0.000     0.000     0.000     1.097     0.000     0.000     2.505  1000.000     8.625     5.879     3.102     0.000     0.000     2.777    86.769    27.746    31.003    24.489    28.261    17.065     0.040     0.110     0.000     0.000     0.000     0.000     0.000     0.000     0.000     0.000     3.100     0.000     0.000     0.818    -0.017     0.000     0.140    -0.083     0.009     0.000     1.763     0.273     0.015     0.002     0.005     0.015     0.000     0.000     0.000     0.002     0.000     0.000     0.027     0.000     0.000     0.050     0.000     0.000     0.000     0.000
RICE   2        0    1    0    5.47315E+02   310.000     0.000     0.000     0.000   139.941    94.958   518.731   618.977     0.000     0.000     0.000     1.182     0.000     0.000     1.197  1000.000     9.118     8.691     1.879     0.001     0.000     6.812    87.055    27.746    31.003    24.489    28.300    17.065     0.494     0.280     0.000     0.000     0.000     0.000     0.000     0.000     0.000     0.000     3.100     0.000     0.000     9.632    -0.198     0.000     1.652     0.830     0.086     0.000     1.763     0.273     1.656     0.203     0.049     0.021     0.000     0.000     0.000     0.002     0.000     0.000     0.027     0.000     0.000     0.050     0.000     0.000     0.000     0.000
AGRR   3        0    1    0    5.37035E+02   310.000     0.000     0.000     0.000   139.941   108.754   550.111   627.536     0.000     0.000     0.000     2.501     0.000     0.000     1.695  1000.000    37.489    36.748     3.696     0.000     0.000    33.052    91.986    27.746    31.003    24.489    28.261    17.065     2.840     0.509     0.000     0.000     0.000     0.000     0.000     0.000     0.000     0.000     3.100     0.000     0.000     0.810    -0.017     0.000     0.139    -0.165     0.008     0.000     4.274     0.436     0.757     0.093     0.261     0.113     0.000     0.000     0.000     0.010     0.000     0.000     0.020     0.000     0.000     0.110     0.042     0.000     0.000     0.000
AGRR   4        0    1    0    5.22097E+02   310.000     0.000     0.000     0.000   139.941    97.940   568.849   672.186     0.000     0.000     0.000     0.645     0.000     0.000     1.000  1000.000     3.481     3.387     1.145     0.037     0.000     2.279    85.177    27.746    31.003    24.489    28.306    17.065     0.177     0.181     0.000     0.000     0.000     0.000     0.000     0.000     0.000     0.000     3.100     0.000     0.000     6.471    -0.134     0.000     1.110     0.448     0.059     0.000     4.274     0.436     0.392     0.048     0.017     0.008     0.000     0.000     0.000     0.001     0.000     0.000     0.020     0.000     0.000     0.110     0.042     0.000     0.000     0.000
AGRR   5        0    1    0    5.25551E+02   310.000     0.000     0.000     0.000   139.941    93.638   513.135   604.813     0.000     0.000     0.000     2.360     0.000     0.000     1.325  1000.000    24.604    24.204     3.185     0.001     0.000    21.019    90.454    27.746    31.003    24.489    28.300    17.065     1.751     0.465     0.000     0.000     0.000     0.000     0.000     0.000     0.000     0.000     3.100     0.000     0.000     9.579    -0.197     0.000     1.643     0.778     0.086     0.000     4.274     0.436     5.539     0.678     0.164     0.064     0.000     0.000     0.000     0.006     0.000     0.000     0.020     0.000     0.000     0.110     0.042     0.000     0.000     0.000
BERM   6        0    1    0    5.79432E+01   310.000     0.000     0.000     0.000   139.941   108.520   545.808   622.344     0.000     0.000     0.000     2.501     0.000     0.000     1.363  1000.000    42.915    42.801     3.365     0.000     0.000    39.436    89.087    27.746    31.003    24.489    28.261    17.065     2.404     0.505     0.000     0.000     0.000     0.000     0.000     0.000     0.000     0.000     3.100     0.000     0.000     0.807    -0.017     0.000     0.138    -1.087     0.006     0.000    11.996     1.816     0.670     0.087     0.284     0.128     0.000     0.000     0.000     0.011     0.000     0.000     0.038     0.000     0.000     0.258     0.329     0.000     0.000     0.000
BERM   7        0    1    0    5.32862E+02   310.000     0.000     0.000     0.000   139.941    92.158   502.951   586.951     0.000     0.000     0.000     2.501     0.000     0.000     1.720  1000.000    43.947    43.400     3.721     0.001     0.000    39.680    89.336    27.746    31.003    24.489    28.300    17.065     2.618     0.505     0.000     0.000     0.000     0.000     0.000     0.000     0.000     0.000     3.100     0.000     0.000     9.481    -0.197     0.000     1.626    -0.016     0.083     0.000    11.996     1.816     8.137     1.001     0.304     0.120     0.000     0.000     0.000     0.011     0.000     0.000     0.038     0.000     0.000     0.258     0.329     0.000     0.000     0.000
FRSD   8        0    2    0    5.20610E+02   310.000     0.000     0.000     0.000   139.989   111.744   562.067   655.931     0.000     0.000     0.000     0.705     0.000     0.000     1.000  1000.000     6.094     6.091     1.205     0.000     0.000     4.886    85.621    27.746    31.003    24.489    28.261    17.065     1.645     0.948     0.000     0.000     0.000     0.000     0.000     0.000     0.000     0.000     3.100     0.000     0.000     0.819    -0.017     0.000     0.140     0.055     0.009     0.000     0.622     0.083     0.322     0.039     0.111     0.016     0.000     0.000     0.000     0.002     0.000     0.000     0.023     0.000     0.000     0.145     0.532     0.000     0.000     0.000
FRSD   9        0    2    0    5.34895E+02   310.000     0.000     0.000     0.000   139.989    97.623   114.572   126.270   100.216    28.036     1.402     1.754     0.000     0.000    17.566  1001.402     0.000     0.000     0.000    39.831     7.813    47.644    53.111    27.746    31.003    24.489    28.475    17.065     0.000     0.000     0.000     0.000     0.000     0.000     0.000     0.000     0.000     0.000     3.100     0.000     0.000     0.358    -0.007     0.000     0.061    -0.011     0.004     0.000     0.622     0.083     0.000     0.000     0.000     0.000     2.608    20.889     1.741     0.000     0.000     0.000     0.023     0.000     0.000     0.145     0.532     0.000     0.000     0.000
FRSD  10        0    2    0    5.15594E+02   310.000     0.000     0.000     0.000   139.989    96.479   520.019   623.744     0.000     0.000     0.000     0.270     0.000     0.000     1.000  1000.000     2.642     2.641     0.770     0.010     0.000     1.880    83.279    27.746    31.003    24.489    28.300    17.065     0.535     0.455     0.000     0.000     0.000     0.000     0.000     0.000     0.000     0.000     3.100     0.000     0.000     9.645    -0.198     0.000     1.654     0.964     0.086     0.000     0.622     0.083     1.312     0.161     0.039     0.007     0.000     0.000     0.000     0.001     0.000     0.000     0.023     0.000     0.000     0.145     0.532     0.000     0.000     0.000
FRSD  11        0    2    0    5.40513E+01   310.000     0.000     0.000     0.000   139.989    88.815   391.534   469.093    25.370     2.799     0.140     0.396     0.000     0.000     2.421  1000.140     0.000     0.000     0.000    11.020     0.342    11.362    58.630    27.746    31.003    24.489    28.291    17.065     0.000     0.000     0.000     0.000     0.000     0.000     0.000     0.000     0.000     0.000     3.100     0.000     0.000     4.341    -0.087     0.000     0.744     0.410     0.039     0.000     0.616     0.082     0.000     0.000     0.000     0.000     0.070     0.387     0.004     0.000     0.000     0.066     0.023     0.000     0.000     0.143     0.530     0.000     0.000     0.000
RICE  12        0    2    0    5.18542E+03   310.000     0.000     0.000     0.000   139.989   110.979   561.494   654.168     0.000     0.000     0.000     1.107     0.000     0.000     1.140  1000.000     8.622     8.359     1.747     0.000     0.000     6.612    86.768    27.746    31.003    24.489    28.261    17.065     2.724     1.163     0.000     0.000     0.000     0.000     0.000     0.000     0.000     0.000     3.100     0.000     0.000     0.818    -0.017     0.000     0.140    -0.072     0.009     0.000     1.763     0.273     0.507     0.062     0.173     0.021     0.000     0.000     0.000     0.002     0.000     0.000     0.027     0.000     0.000     0.050     0.000     0.000     0.000     0.000
RICE  13        0    2    0    5.28235E+02   310.000     0.000     0.000     0.000   139.989    94.954   518.640   618.817     0.000     0.000     0.000     1.117     0.000     0.000     1.000  1000.000     9.099     9.088     1.617     0.010     0.000     7.481    87.050    27.746    31.003    24.489    28.300    17.065     2.967     1.314     0.000     0.000     0.000     0.000     0.000     0.000     0.000     0.000     3.100     0.000     0.000     9.631    -0.198     0.000     1.652     0.839     0.086     0.000     1.763     0.273     6.424     0.787     0.189     0.022     0.000     0.000     0.000     0.002     0.000     0.000     0.027     0.000     0.000     0.050     0.000     0.000     0.000     0.000
AGRR  14        0    2    0    5.32822E+02   310.000     0.000     0.000     0.000   139.989   108.769   550.097   627.515     0.000     0.000     0.000     2.502     0.000     0.000     1.344  1000.000    37.484    37.454     3.346     0.000     0.000    34.108    91.986    27.746    31.003    24.489    28.261    17.065    15.211     2.255     0.000     0.000     0.000     0.000     0.000     0.000     0.000     0.000     3.100     0.000     0.000     0.810    -0.017     0.000     0.139    -0.120     0.008     0.000     4.274     0.436     2.526     0.309     0.873     0.115     0.000     0.000     0.000     0.009     0.000     0.000     0.020     0.000     0.000     0.110     0.042     0.000     0.000     0.000
AGRR  15        0    2    0    5.61802E+01   310.000     0.000     0.000     0.000   139.989    96.626   114.595   126.556   100.825    28.082     1.404     1.754     0.000     0.000    17.606  1001.404     0.000     0.000     0.000    39.882     7.818    47.699    75.824    27.746    31.003    24.489    28.475    17.065     0.000     0.000     0.000     0.000     0.000     0.000     0.000     0.000     0.000     0.000     3.100     0.000     0.000     0.358    -0.007     0.000     0.061    -0.243     0.004     0.000     4.274     0.436     0.000     0.000     0.000     0.000     2.586    20.672     1.739     0.000     0.000     0.000     0.020     0.000     0.000     0.110     0.042     0.000     0.000     0.000
AGRR  16        0    2    0    5.31750E+02   310.000     0.000     0.000     0.000   139.989    93.636   513.051   604.667     0.000     0.000     0.000     2.338     0.000     0.000     1.160  1000.000    24.579    24.557     2.998     0.009     0.000    21.568    90.452    27.746    31.003    24.489    28.300    17.065     9.359     2.061     0.000     0.000     0.000     0.000     0.000     0.000     0.000     0.000     3.100     0.000     0.000     9.577    -0.197     0.000     1.642     0.806     0.086     0.000     4.274     0.436    18.880     2.313     0.560     0.065     0.000     0.000     0.000     0.006     0.000     0.000     0.020     0.000     0.000     0.110     0.042     0.000     0.000     0.000
AGRR  17        0    2    0    5.74645E+01   310.000     0.000     0.000     0.000   139.989    97.839   568.283   671.114     0.000     0.000     0.000     0.561     0.000     0.000     1.000  1000.000     3.418     3.418     1.061     0.520     0.000     2.877    85.154    27.746    31.003    24.489    28.306    17.065     0.900     0.955     0.000     0.000     0.000     0.000     0.000     0.000     0.000     0.000     3.100     0.000     0.000     6.468    -0.134     0.000     1.109     0.450     0.059     0.000     4.274     0.436     1.342     0.164     0.059     0.008     0.002     0.000     0.000     0.001     0.000     0.000     0.020     0.000     0.000     0.110     0.042     0.000     0.000     0.000
RICE   1        0    1    0    6.40501E+03     0.000     0.000     0.000     0.000   259.789   102.314   603.579   551.877     0.000     0.000     0.000     1.505     0.000     0.000     1.000  1000.000     0.000     2.744     0.000     0.000     0.000     2.744    89.172    29.514    34.513    24.514    28.982    35.446     0.050     0.000     0.000     0.000     0.000     0.000     0.000     0.000     0.000     0.000     0.000     0.000     0.000     0.817    -0.028     0.000     0.140    -1.367     0.000     0.000    14.810     2.325     0.018     0.002     0.006     0.007     0.000     0.000     0.000     0.001     0.000     0.000     0.639     0.219     0.000     0.734     0.511     0.011     0.000     0.000
RICE   2        0    1    0    6.47315E+02     0.000     0.000     0.000     0.000   259.789   110.441   563.659   508.536     0.000     0.000     0.000     0.197     0.000     0.000     1.000  1000.000     0.000     0.427     0.000     0.001     0.000     0.428    89.323    29.514    34.513    24.514    29.083    35.446     0.032     0.000     0.000     0.000     0.000     0.000     0.000     0.000     0.000     0.000     0.000     0.000     0.000     9.661    -0.332     0.000     1.657    -0.249     0.132     0.000    18.586     2.356     0.103     0.013     0.003     0.001     0.000     0.000     0.000     0.000     0.000     0.000     0.639     0.000     0.000     0.747     0.517     0.011     0.000     0.000
AGRR   3        0    1    0    6.37035E+02     0.000     0.000     0.000     0.000   259.789   127.810   570.785   499.726     0.000     0.000     0.000     0.695     0.000     0.000     1.000  1000.000     0.000     0.741     0.000     0.000     0.000     0.741    92.651    29.514    34.513    24.514    28.872    35.446     0.070     0.000     0.000     0.000     0.000     0.000     0.000     0.000     0.000     0.000     0.000     0.000     0.000     0.793    -0.028     0.000     0.136    -1.507    -0.007     0.000    12.173     2.637     0.017     0.002     0.006     0.002     0.000     0.000     0.000     0.000     0.000     0.000     0.446    17.695     0.000     1.668     1.368     0.042     0.000     0.000
AGRR   4        0    1    0    6.22097E+02     0.000     0.000     0.000     0.000   259.789   150.979   606.310   521.207     0.000     0.000     0.000     0.000     0.000     0.000     1.000  1000.000     0.000     0.094     0.000     0.051     0.000     0.144    86.869    29.514    34.513    24.514    28.889    35.446     0.008     0.000     0.000     0.000     0.000     0.000     0.000     0.000     0.000     0.000     0.000     0.000     0.000     6.408    -0.224     0.000     1.099    -2.549     0.017     0.000    28.665     5.421     0.017     0.002     0.001     0.000     0.000     0.000     0.000     0.000     0.000     0.000     0.446    12.215     0.000     3.187     1.870     0.080     0.000     0.000
AGRR   5        0    1    0    6.25551E+02     0.000     0.000     0.000     0.000   259.789   154.424   538.487   450.389     0.000     0.000     0.000     0.325     0.000     0.000     1.000  1000.000     0.000     0.400     0.000     0.001     0.000     0.401    91.361    29.514    34.513    24.514    28.860    35.446     0.037     0.000     0.000     0.000     0.000     0.000     0.000     0.000     0.000     0.000     0.000     0.000     0.000     9.400    -0.330     0.000     1.612    -2.995     0.038     0.000    37.239     6.771     0.110     0.014     0.003     0.001     0.000     0.000     0.000     0.000     0.000     0.000     0.446    10.024     0.000     3.924     2.066     0.099     0.000     0.000
BERM   6        0    1    0    6.79432E+01     0.000     0.000     0.000     0.000   259.789   128.933   561.032   493.412     0.000     0.000     0.000     0.363     0.000     0.000     1.000  1000.000     0.000     0.114     0.000     0.000     0.000     0.114    89.783    29.514    34.513    24.514    28.902    35.446     0.005     0.000     0.000     0.000     0.000     0.000     0.000     0.000     0.000     0.000     0.000     0.000     0.000     0.786    -0.028     0.000     0.135    -1.324    -0.017     0.000     4.404     2.495     0.001     0.000     0.001     0.000     0.000     0.000     0.000     0.000     0.000     0.000     0.989    26.403     0.000     0.775     1.073     0.012     0.000     0.000
BERM   7        0    1    0    6.32862E+02     0.000     0.000     0.000     0.000   259.789   155.884   515.386   431.067     0.000     0.000     0.000     0.720     0.000     0.000     1.000  1000.000     0.000     0.547     0.000     0.001     0.000     0.548    89.839    29.514    34.513    24.514    28.866    35.446     0.024     0.000     0.000     0.000     0.000     0.000     0.000     0.000     0.000     0.000     0.000     0.000     0.000     9.194    -0.327     0.000     1.577    -3.598    -0.017     0.000    29.135     7.487     0.078     0.010     0.003     0.001     0.000     0.000     0.000     0.000     0.000     0.000     0.989    21.108     0.000     1.876     1.702     0.029     0.000     0.000
FRSD   8        0    2    0    6.20610E+02     0.000     0.000     0.000     0.000   259.938   231.630   554.803   424.302     0.000     0.000     0.000     0.000     0.000     0.000     1.000  1000.000     0.000     0.003     0.000     0.000     0.000     0.003    85.136    29.514    34.513    24.514    28.774    35.448     0.001     0.000     0.000     0.000     0.000     0.000     0.000     0.000     0.000     0.000     0.000     0.000     0.000     0.777    -0.028     0.000     0.133    -0.883     0.000     0.000     7.931     1.603     0.000     0.000     0.000     0.000     0.000     0.000     0.000     0.000     0.000     0.000     0.008     0.000     0.000     3.704     4.757     0.083     0.000     0.000
FRSD   9        0    2    0    6.34895E+02     0.000     0.000     0.000     0.000   259.938   126.270    46.167     0.000     0.000    44.756     2.238     5.199     0.000     0.000    17.626  1003.640     0.000     0.000     0.000     4.356    37.260    41.617    31.171    29.514    34.513    24.514    30.104    35.448     0.000     0.000     0.000     0.000     0.000     0.000     0.000     0.000     0.000     0.000     0.000     0.000     0.000     0.189    -0.011     0.000     0.032    -0.625    -0.002     0.000     6.217     1.078     0.000     0.000     0.000     0.000     0.291     0.000     7.576     0.000     0.000    11.446     0.008     0.000     0.000     2.036     4.097     0.046     0.000     0.000
FRSD  10        0    2    0    6.15594E+02     0.000     0.000     0.000     0.000   259.938   233.843   520.800   389.900     0.000     0.000     0.000     0.000     0.000     0.000     1.000  1000.000     0.000     0.001     0.000     0.017     0.000     0.018    83.279    29.514    34.513    24.514    28.843    35.448     0.000     0.000     0.000     0.000     0.000     0.000     0.000     0.000     0.000     0.000     0.000     0.000     0.000     9.204    -0.331     0.000     1.578     0.172     0.126     0.000     7.931     1.603     0.001     0.000     0.000     0.000     0.000     0.000     0.000     0.000     0.000     0.000     0.008     0.000     0.000     3.704     4.757     0.083     0.000     0.000
FRSD  11        0    2    0    6.40513E+01     0.000     0.000     0.000     0.000   259.938   234.423   360.805   229.617     4.300    16.645     0.832     5.199     0.000     0.000     2.760  1000.972     0.000     0.000     0.000     3.232    10.274    13.506    55.461    29.514    34.513    24.514    28.842    35.448     0.000     0.000     0.000     0.000     0.000     0.000     0.000     0.000     0.000     0.000     0.000     0.000     0.000     3.948    -0.146     0.000     0.677    -0.479     0.040     0.000     7.929     1.603     0.000     0.000     0.000     0.000     0.039     0.066     0.152     0.000     0.000     0.007     0.008     0.000     0.000     3.701     4.755     0.083     0.000     0.000
RICE  12        0    2    0    6.18542E+03     0.000     0.000     0.000     0.000   259.938   102.357   603.533   551.811     0.000     0.000     0.000     0.140     0.000     0.000     1.000  1000.000     0.000     0.263     0.000     0.000     0.000     0.263    89.169    29.514    34.513    24.514    28.982    35.448     0.117     0.000     0.000     0.000     0.000     0.000     0.000     0.000     0.000     0.000     0.000     0.000     0.000     0.817    -0.028     0.000     0.140    -1.365     0.000     0.000    14.809     2.325     0.020     0.003     0.007     0.001     0.000     0.000     0.000     0.000     0.000     0.000     0.639     0.219     0.000     0.734     0.511     0.011     0.000     0.000
RICE  13        0    2    0    6.28235E+02     0.000     0.000     0.000     0.000   259.938   110.439   563.499   508.378     0.000     0.000     0.000     0.000     0.000     0.000     1.000  1000.000     0.000     0.010     0.000     0.017     0.000     0.027    89.316    29.514    34.513    24.514    29.083    35.448     0.005     0.000     0.000     0.000     0.000     0.000     0.000     0.000     0.000     0.000     0.000     0.000     0.000     9.659    -0.332     0.000     1.656    -0.248     0.132     0.000    18.586     2.356     0.010     0.001     0.000     0.000     0.000     0.000     0.000     0.000     0.000     0.000     0.639     0.000     0.000     0.747     0.517     0.011     0.000     0.000
AGRR  14        0    2    0    6.32822E+02     0.000     0.000     0.000     0.000   259.938   127.869   570.736   499.647     0.000     0.000     0.000     0.344     0.000     0.000     1.000  1000.000     0.000     0.030     0.000     0.000     0.000     0.030    92.650    29.514    34.513    24.514    28.872    35.448     0.017     0.000     0.000     0.000     0.000     0.000     0.000     0.000     0.000     0.000     0.000     0.000     0.000     0.793    -0.028     0.000     0.136    -1.505    -0.007     0.000    12.172     2.637     0.002     0.000     0.001     0.000     0.000     0.000     0.000     0.000     0.000     0.000     0.446    17.696     0.000     1.667     1.368     0.042     0.000     0.000
AGRR  15        0    2    0    6.61802E+01     0.000     0.000     0.000     0.000   259.938   125.254    72.139     1.302     0.000    45.105     2.255     5.199     0.000     0.000    17.788  1003.659     0.000     0.000     0.000     4.408    37.469    41.877    59.357    29.514    34.513    24.514    30.924    35.448     0.000     0.000     0.000     0.000     0.000     0.000     0.000     0.000     0.000     0.000     0.000     0.000     0.000     0.258    -0.011     0.000     0.044    -3.281    -0.014     0.000    28.561     5.470     0.000     0.000     0.000     0.000     0.278     0.000     7.495     0.000     0.000     0.000     0.446    11.955     0.000     3.204     1.888     0.081     0.000     0.000
AGRR  16        0    2    0    6.31750E+02     0.000     0.000     0.000     0.000   259.938   154.464   538.327   450.203     0.000     0.000     0.000     0.160     0.000     0.000     1.000  1000.000     0.000     0.022     0.000     0.016     0.000     0.038    91.356    29.514    34.513    24.514    28.860    35.448     0.012     0.000     0.000     0.000     0.000     0.000     0.000     0.000     0.000     0.000     0.000     0.000     0.000     9.397    -0.330     0.000     1.611    -2.993     0.038     0.000    37.233     6.770     0.021     0.003     0.001     0.000     0.000     0.000     0.000     0.000     0.000     0.000     0.446    10.026     0.000     3.923     2.066     0.099     0.000     0.000
AGRR  17        0    2    0    6.74645E+01     0.000     0.000     0.000     0.000   259.938   150.801   605.355   520.313     0.000     0.000     0.000     0.000     0.000     0.000     1.000  1000.000     0.000     0.001     0.000     0.534     0.000     0.535    86.830    29.514    34.513    24.514    28.890    35.448     0.000     0.000     0.000     0.000     0.000     0.000     0.000     0.000     0.000     0.000     0.000     0.000     0.000     6.403    -0.224     0.000     1.098    -2.548     0.017     0.000    28.653     5.419     0.000     0.000     0.000     0.000     0.002     0.000     0.000     0.000     0.000     0.000     0.446    12.219     0.000     3.186     1.869     0.080     0.000     0.000
RICE   1        0    1    0 1993.40501E+03   310.000     0.000     0.000     0.000   590.837   262.015   137.358   551.877     0.000     0.000     0.000     2.602     0.000     0.000     1.000  1000.000     8.625     8.623     3.102     0.000     0.000     5.521    21.477     7.246     8.377     6.116     7.166     6.640     0.090     0.110     0.000     0.000     0.000     0.000     0.000     0.000     0.000     0.000     3.100     0.000     0.000     2.383    -0.051     0.000     0.409    -1.385     0.010     0.000    16.572     2.598     0.033     0.004     0.011     0.022     0.000     0.000     0.000     0.002     0.000     0.000     0.665     0.219     0.000     0.000     0.511     0.000     0.000     0.000
RICE   2        0    1    0 1993.47315E+02   310.000     0.000     0.000     0.000   590.837   253.586   126.254   508.536     0.000     0.000     0.000     1.379     0.000     0.000     1.000  1000.000     9.118     9.118     1.879     0.002     0.000     7.241    21.539     7.246     8.377     6.116     7.183     6.640     0.526     0.280     0.000     0.000     0.000     0.000     0.000     0.000     0.000     0.000     3.100     0.000     0.000    27.942    -0.592     0.000     4.792     1.332     0.241     0.000    20.349     2.630     1.760     0.216     0.052     0.022     0.000     0.000     0.000     0.002     0.000     0.000     0.665     0.000     0.000     0.000     0.517     0.000     0.000     0.000
AGRR   3        0    1    0 1993.37035E+02   310.000     0.000     0.000     0.000   590.837   285.301   133.695   499.726     0.000     0.000     0.000     3.196     0.000     0.000     1.000  1000.000    37.489    37.489     3.696     0.000     0.000    33.793    22.822     7.246     8.377     6.116     7.157     6.640     2.909     0.509     0.000     0.000     0.000     0.000     0.000     0.000     0.000     0.000     3.100     0.000     0.000     2.350    -0.050     0.000     0.403    -1.607     0.003     0.000    16.447     3.073     0.774     0.095     0.267     0.115     0.000     0.000     0.000     0.010     0.000     0.000     0.466    17.695     0.000     0.000     1.368     0.000     0.000     0.000
AGRR   4        0    1    0 1993.22097E+02   310.000     0.000     0.000     0.000   590.837   297.656   138.206   521.207     0.000     0.000     0.000     0.645     0.000     0.000     1.000  1000.000     3.481     3.481     1.145     0.088     0.000     2.424    21.065     7.246     8.377     6.116     7.171     6.640     0.185     0.181     0.000     0.000     0.000     0.000     0.000     0.000     0.000     0.000     3.100     0.000     0.000    18.747    -0.399     0.000     3.215    -1.592     0.090     0.000    32.939     5.857     0.409     0.050     0.018     0.008     0.000     0.000     0.000     0.001     0.000     0.000     0.466    12.215     0.000     0.000     1.870     0.000     0.000     0.000
AGRR   5        0    1    0 1993.25551E+02   310.000     0.000     0.000     0.000   590.837   296.249   123.710   450.389     0.000     0.000     0.000     2.685     0.000     0.000     1.000  1000.000    24.604    24.604     3.185     0.002     0.000    21.421    22.396     7.246     8.377     6.116     7.165     6.640     1.788     0.465     0.000     0.000     0.000     0.000     0.000     0.000     0.000     0.000     3.100     0.000     0.000    27.628    -0.590     0.000     4.738    -1.466     0.146     0.000    41.513     7.207     5.649     0.692     0.167     0.065     0.000     0.000     0.000     0.006     0.000     0.000     0.466    10.024     0.000     0.000     2.066     0.000     0.000     0.000
BERM   6        0    1    0 1993.79432E+01   310.000     0.000     0.000     0.000   590.837   286.190   132.528   493.412     0.000     0.000     0.000     2.865     0.000     0.000     1.000  1000.000    42.915    42.915     3.365     0.000     0.000    39.550    22.050     7.246     8.377     6.116     7.160     6.640     2.409     0.505     0.000     0.000     0.000     0.000     0.000     0.000     0.000     0.000     3.100     0.000     0.000     2.340    -0.050     0.000     0.401    -2.346    -0.009     0.000    16.400     4.310     0.672     0.087     0.285     0.129     0.000     0.000     0.000     0.011     0.000     0.000     1.026    26.403     0.000     0.000     1.073     0.000     0.000     0.000
BERM   7        0    1    0 1993.32862E+02   310.000     0.000     0.000     0.000   590.837   296.229   120.946   431.067     0.000     0.000     0.000     3.221     0.000     0.000     1.000  1000.000    43.947    43.948     3.721     0.001     0.000    40.228    22.093     7.246     8.377     6.116     7.165     6.640     2.642     0.505     0.000     0.000     0.000     0.000     0.000     0.000     0.000     0.000     3.100     0.000     0.000    27.324    -0.586     0.000     4.686    -2.862     0.088     0.000    41.132     9.302     8.215     1.010     0.307     0.121     0.000     0.000     0.000     0.011     0.000     0.000     1.026    21.108     0.000     0.000     1.702     0.000     0.000     0.000
FRSD   8        0    2    0 1993.20610E+02   310.000     0.000     0.000     0.000   591.075   392.119   133.396   424.302     0.000     0.000     0.000     0.705     0.000     0.000     1.000  1000.000     6.094     6.094     1.205     0.000     0.000     4.889    20.920     7.246     8.377     6.116     7.149     6.640     1.646     0.948     0.000     0.000     0.000     0.000     0.000     0.000     0.000     0.000     3.100     0.000     0.000     2.343    -0.051     0.000     0.402    -0.763     0.010     0.000     8.552     1.686     0.322     0.040     0.112     0.016     0.000     0.000     0.000     0.002     0.000     0.000     0.031     0.000     0.000     0.000     4.757     0.000     0.000     0.000
FRSD   9        0    2    0 1993.34895E+02   310.000     0.000     0.000     0.000   591.075   260.778    19.662     0.000   100.216    72.792     3.640     6.953     0.000     0.000    17.626  1003.640     0.000     0.000     0.000    44.187    45.074    89.261     9.441     7.246     8.377     6.116     7.454     6.640     0.000     0.000     0.000     0.000     0.000     0.000     0.000     0.000     0.000     0.000     3.100     0.000     0.000     0.832    -0.020     0.000     0.143    -0.611     0.003     0.000     6.839     1.161     0.000     0.000     0.000     0.000     2.900    20.889     9.318     0.000     0.000    11.446     0.031     0.000     0.000     0.000     4.097     0.000     0.000     0.000
FRSD  10        0    2    0 1993.15594E+02   310.000     0.000     0.000     0.000   591.075   378.519   122.841   389.900     0.000     0.000     0.000     0.270     0.000     0.000     1.000  1000.000     2.642     2.642     0.770     0.027     0.000     1.899    20.300     7.246     8.377     6.116     7.163     6.640     0.535     0.455     0.000     0.000     0.000     0.000     0.000     0.000     0.000     0.000     3.100     0.000     0.000    27.498    -0.590     0.000     4.715     1.887     0.235     0.000     8.552     1.686     1.312     0.161     0.039     0.007     0.000     0.000     0.000     0.001     0.000     0.000     0.031     0.000     0.000     0.000     4.757     0.000     0.000     0.000
FRSD  11        0    2    0 1993.40513E+01   310.000     0.000     0.000     0.000   591.075   369.596    88.317   229.617    29.670    19.443     0.972     5.595     0.000     0.000     2.760  1000.972     0.000     0.000     0.000    14.252    10.616    24.869    13.653     7.246     8.377     6.116     7.158     6.640     0.000     0.000     0.000     0.000     0.000     0.000     0.000     0.000     0.000     0.000     3.100     0.000     0.000    12.060    -0.260     0.000     2.068     0.259     0.089     0.000     8.546     1.685     0.000     0.000     0.000     0.000     0.109     0.452     0.156     0.000     0.000     0.073     0.031     0.000     0.000     0.000     4.755     0.000     0.000     0.000
RICE  12        0    2    0 1993.18542E+03   310.000     0.000     0.000     0.000   591.075   262.082   137.353   551.811     0.000     0.000     0.000     1.247     0.000     0.000     1.000  1000.000     8.622     8.622     1.747     0.000     0.000     6.875    21.477     7.246     8.377     6.116     7.166     6.640     2.840     1.163     0.000     0.000     0.000     0.000     0.000     0.000     0.000     0.000     3.100     0.000     0.000     2.383    -0.051     0.000     0.409    -1.373     0.010     0.000    16.572     2.598     0.528     0.065     0.180     0.022     0.000     0.000     0.000     0.002     0.000     0.000     0.665     0.219     0.000     0.000     0.511     0.000     0.000     0.000
RICE  13        0    2    0 1993.28235E+02   310.000     0.000     0.000     0.000   591.075   253.589   126.233   508.378     0.000     0.000     0.000     1.117     0.000     0.000     1.000  1000.000     9.099     9.099     1.617     0.027     0.000     7.508    21.538     7.246     8.377     6.116     7.183     6.640     2.972     1.314     0.000     0.000     0.000     0.000     0.000     0.000     0.000     0.000     3.100     0.000     0.000    27.939    -0.592     0.000     4.791     1.342     0.241     0.000    20.349     2.630     6.434     0.788     0.190     0.022     0.000     0.000     0.000     0.002     0.000     0.000     0.665     0.000     0.000     0.000     0.517     0.000     0.000     0.000
AGRR  14        0    2    0 1993.32822E+02   310.000     0.000     0.000     0.000   591.075   285.384   133.689   499.647     0.000     0.000     0.000     2.846     0.000     0.000     1.000  1000.000    37.484    37.484     3.346     0.000     0.000    34.138    22.822     7.246     8.377     6.116     7.157     6.640    15.228     2.255     0.000     0.000     0.000     0.000     0.000     0.000     0.000     0.000     3.100     0.000     0.000     2.349    -0.050     0.000     0.403    -1.560     0.003     0.000    16.447     3.073     2.528     0.310     0.874     0.115     0.000     0.000     0.000     0.009     0.000     0.000     0.466    17.696     0.000     0.000     1.368     0.000     0.000     0.000
AGRR  15        0    2    0 1993.61802E+01   310.000     0.000     0.000     0.000   591.075   258.765    21.798     1.302   100.825    73.187     3.659     6.953     0.000     0.000    17.788  1003.659     0.000     0.000     0.000    44.289    45.287    89.576    15.929     7.246     8.377     6.116     7.522     6.640     0.000     0.000     0.000     0.000     0.000     0.000     0.000     0.000     0.000     0.000     3.100     0.000     0.000     0.900    -0.020     0.000     0.154    -3.499    -0.009     0.000    32.836     5.906     0.000     0.000     0.000     0.000     2.864    20.672     9.234     0.000     0.000     0.000     0.466    11.955     0.000     0.000     1.888     0.000     0.000     0.000
AGRR  16        0    2    0 1993.31750E+02   310.000     0.000     0.000     0.000   591.075   296.296   123.689   450.203     0.000     0.000     0.000     2.498     0.000     0.000     1.000  1000.000    24.579    24.579     2.998     0.025     0.000    21.606    22.395     7.246     8.377     6.116     7.165     6.640     9.370     2.061     0.000     0.000     0.000     0.000     0.000     0.000     0.000     0.000     3.100     0.000     0.000    27.623    -0.589     0.000     4.737    -1.437     0.146     0.000    41.507     7.206    18.901     2.315     0.561     0.065     0.000     0.000     0.000     0.006     0.000     0.000     0.466    10.026     0.000     0.000     2.066     0.000     0.000     0.000
AGRR  17        0    2    0 1993.74645E+01   310.000     0.000     0.000     0.000   591.075   297.386   138.079   520.313     0.000     0.000     0.000     0.561     0.000     0.000     1.000  1000.000     3.418     3.418     1.061     1.055     0.000     3.412    21.060     7.246     8.377     6.116     7.171     6.640     0.900     0.955     0.000     0.000     0.000     0.000     0.000     0.000     0.000     0.000     3.100     0.000     0.000    18.739    -0.399     0.000     3.213    -1.589     0.090     0.000    32.927     5.855     1.342     0.164     0.059     0.008     0.004     0.000     0.000     0.001     0.000     0.000     0.466    12.219     0.000     0.000     1.869     0.000     0.000     0.000
RICE   1        0    1    0  0.8.40501E+03   411.455     0.000     0.000     0.000   784.202   347.765   182.112   551.877     0.000     0.000     0.000     3.453     0.000     0.000     1.000  1000.000    11.448    11.445     4.117     0.000     0.000     7.328    28.475     9.608    11.106     8.109     9.501     8.803     0.119     0.146     0.000     0.000     0.000     0.000     0.000     0.000     0.000     0.000     4.115     0.000     0.000     3.163    -0.067     0.000     0.542    -1.838     0.014     0.000    21.996     3.449     0.044     0.005     0.015     0.029     0.000     0.000     0.000     0.003     0.000     0.000     0.883     0.291     0.000     0.000     0.678     0.000     0.000     0.000
RICE   2        0    1    0  0.8.47315E+02   411.455     0.000     0.000     0.000   784.202   336.578   167.390   508.536     0.000     0.000     0.000     1.831     0.000     0.000     1.000  1000.000    12.102    12.102     2.494     0.002     0.000     9.610    28.557     9.608    11.106     8.109     9.523     8.803     0.698     0.371     0.000     0.000     0.000     0.000     0.000     0.000     0.000     0.000     4.115     0.000     0.000    37.087    -0.786     0.000     6.360     1.768     0.320     0.000    27.008     3.490     2.336     0.286     0.069     0.029     0.000     0.000     0.000     0.003     0.000     0.000     0.883     0.000     0.000     0.000     0.687     0.000     0.000     0.000
AGRR   3        0    1    0  0.8.37035E+02   411.455     0.000     0.000     0.000   784.202   378.673   177.255   499.726     0.000     0.000     0.000     4.242     0.000     0.000     1.000  1000.000    49.758    49.758     4.906     0.000     0.000    44.853    30.257     9.608    11.106     8.109     9.489     8.803     3.861     0.676     0.000     0.000     0.000     0.000     0.000     0.000     0.000     0.000     4.115     0.000     0.000     3.119    -0.067     0.000     0.535    -2.133     0.004     0.000    21.830     4.079     1.028     0.126     0.354     0.153     0.000     0.000     0.000     0.013     0.000     0.000     0.619    23.487     0.000     0.000     1.816     0.000     0.000     0.000
AGRR   4        0    1    0  0.8.22097E+02   411.455     0.000     0.000     0.000   784.202   395.071   183.236   521.207     0.000     0.000     0.000     0.856     0.000     0.000     1.000  1000.000     4.620     4.620     1.520     0.117     0.000     3.217    27.929     9.608    11.106     8.109     9.508     8.803     0.246     0.241     0.000     0.000     0.000     0.000     0.000     0.000     0.000     0.000     4.115     0.000     0.000    24.883    -0.530     0.000     4.267    -2.113     0.120     0.000    43.719     7.773     0.542     0.067     0.024     0.011     0.000     0.000     0.000     0.001     0.000     0.000     0.619    16.213     0.000     0.000     2.481     0.000     0.000     0.000
AGRR   5        0    1    0  0.8.25551E+02   411.455     0.000     0.000     0.000   784.202   393.203   164.017   450.389     0.000     0.000     0.000     3.564     0.000     0.000     1.000  1000.000    32.656    32.656     4.228     0.002     0.000    28.431    29.693     9.608    11.106     8.109     9.499     8.803     2.373     0.618     0.000     0.000     0.000     0.000     0.000     0.000     0.000     0.000     4.115     0.000     0.000    36.669    -0.783     0.000     6.288    -1.946     0.194     0.000    55.099     9.566     7.498     0.918     0.222     0.087     0.000     0.000     0.000     0.009     0.000     0.000     0.619    13.304     0.000     0.000     2.743     0.000     0.000     0.000
BERM   6        0    1    0  0.8.79432E+01   411.455     0.000     0.000     0.000   784.202   379.852   175.708   493.412     0.000     0.000     0.000     3.802     0.000     0.000     1.000  1000.000    56.960    56.960     4.466     0.000     0.000    52.494    29.235     9.608    11.106     8.109     9.493     8.803     3.197     0.670     0.000     0.000     0.000     0.000     0.000     0.000     0.000     0.000     4.115     0.000     0.000     3.106    -0.067     0.000     0.533    -3.114    -0.011     0.000    21.767     5.721     0.892     0.115     0.378     0.171     0.000     0.000     0.000     0.015     0.000     0.000     1.362    35.044     0.000     0.000     1.425     0.000     0.000     0.000
BERM   7        0    1    0  0.8.32862E+02   411.455     0.000     0.000     0.000   784.202   393.177   160.353   431.067     0.000     0.000     0.000     4.275     0.000     0.000     1.000  1000.000    58.330    58.330     4.939     0.002     0.000    53.393    29.291     9.608    11.106     8.109     9.500     8.803     3.507     0.670     0.000     0.000     0.000     0.000     0.000     0.000     0.000     0.000     4.115     0.000     0.000    36.266    -0.778     0.000     6.219    -3.799     0.117     0.000    54.593    12.347    10.904     1.341     0.408     0.161     0.000     0.000     0.000     0.015     0.000     0.000     1.362    28.016     0.000     0.000     2.259     0.000     0.000     0.000
FRSD   8        0    2    0  0.8.20610E+02   411.455     0.000     0.000     0.000   784.518   520.449   176.859   424.302     0.000     0.000     0.000     0.936     0.000     0.000     1.000  1000.000     8.088     8.088     1.599     0.000     0.000     6.489    27.737     9.608    11.106     8.109     9.479     8.803     2.185     1.259     0.000     0.000     0.000     0.000     0.000     0.000     0.000     0.000     4.115     0.000     0.000     3.110    -0.067     0.000     0.533    -1.013     0.014     0.000    11.351     2.238     0.428     0.052     0.148     0.021     0.000     0.000     0.000     0.002     0.000     0.000     0.041     0.000     0.000     0.000     6.314     0.000     0.000     0.000
FRSD   9        0    2    0  0.8.34895E+02   411.455     0.000     0.000     0.000   784.518   346.124    26.068     0.000   133.014    96.615     4.831     9.229     0.000     0.000    17.626  1003.640     0.000     0.000     0.000    58.648    59.825   118.473    12.517     9.608    11.106     8.109     9.883     8.803     0.000     0.000     0.000     0.000     0.000     0.000     0.000     0.000     0.000     0.000     4.115     0.000     0.000     1.104    -0.026     0.000     0.189    -0.811     0.004     0.000     9.077     1.541     0.000     0.000     0.000     0.000     3.849    27.725    12.367     0.000     0.000    15.193     0.041     0.000     0.000     0.000     5.438     0.000     0.000     0.000
FRSD  10        0    2    0  0.8.15594E+02   411.455     0.000     0.000     0.000   784.518   502.397   162.864   389.900     0.000     0.000     0.000     0.359     0.000     0.000     1.000  1000.000     3.506     3.506     1.023     0.036     0.000     2.520    26.914     9.608    11.106     8.109     9.497     8.803     0.711     0.603     0.000     0.000     0.000     0.000     0.000     0.000     0.000     0.000     4.115     0.000     0.000    36.497    -0.784     0.000     6.259     2.504     0.311     0.000    11.351     2.238     1.742     0.213     0.052     0.009     0.000     0.000     0.000     0.001     0.000     0.000     0.041     0.000     0.000     0.000     6.314     0.000     0.000     0.000
FRSD  11        0    2    0  0.8.40513E+01   411.455     0.000     0.000     0.000   784.518   490.555   117.092   229.617    39.381    25.807     1.290     7.426     0.000     0.000     2.760  1000.972     0.000     0.000     0.000    18.917    14.091    33.008    18.101     9.608    11.106     8.109     9.490     8.803     0.000     0.000     0.000     0.000     0.000     0.000     0.000     0.000     0.000     0.000     4.115     0.000     0.000    16.006    -0.345     0.000     2.745     0.343     0.118     0.000    11.342     2.236     0.000     0.000     0.000     0.000     0.145     0.600     0.207     0.000     0.000     0.097     0.041     0.000     0.000     0.000     6.311     0.000     0.000     0.000
RICE  12        0    2    0  0.8.18542E+03   411.455     0.000     0.000     0.000   784.518   347.855   182.105   551.811     0.000     0.000     0.000     1.656     0.000     0.000     1.000  1000.000    11.444    11.444     2.319     0.000     0.000     9.125    28.475     9.608    11.106     8.109     9.501     8.803     3.770     1.544     0.000     0.000     0.000     0.000     0.000     0.000     0.000     0.000     4.115     0.000     0.000     3.162    -0.067     0.000     0.542    -1.822     0.014     0.000    21.996     3.449     0.700     0.086     0.239     0.029     0.000     0.000     0.000     0.003     0.000     0.000     0.883     0.291     0.000     0.000     0.678     0.000     0.000     0.000
RICE  13        0    2    0  0.8.28235E+02   411.455     0.000     0.000     0.000   784.518   336.582   167.362   508.378     0.000     0.000     0.000     1.482     0.000     0.000     1.000  1000.000    12.076    12.076     2.146     0.036     0.000     9.966    28.556     9.608    11.106     8.109     9.523     8.803     3.945     1.744     0.000     0.000     0.000     0.000     0.000     0.000     0.000     0.000     4.115     0.000     0.000    37.082    -0.786     0.000     6.359     1.781     0.320     0.000    27.009     3.490     8.539     1.046     0.252     0.029     0.000     0.000     0.000     0.003     0.000     0.000     0.883     0.000     0.000     0.000     0.687     0.000     0.000     0.000
AGRR  14        0    2    0  0.8.32822E+02   411.455     0.000     0.000     0.000   784.518   378.782   177.248   499.647     0.000     0.000     0.000     3.778     0.000     0.000     1.000  1000.000    49.752    49.752     4.441     0.000     0.000    45.311    30.257     9.608    11.106     8.109     9.489     8.803    20.212     2.993     0.000     0.000     0.000     0.000     0.000     0.000     0.000     0.000     4.115     0.000     0.000     3.118    -0.067     0.000     0.535    -2.070     0.005     0.000    21.829     4.079     3.356     0.411     1.161     0.153     0.000     0.000     0.000     0.013     0.000     0.000     0.619    23.487     0.000     0.000     1.816     0.000     0.000     0.000
AGRR  15        0    2    0  0.8.61802E+01   411.455     0.000     0.000     0.000   784.518   343.452    28.900     1.302   133.823    97.139     4.857     9.229     0.000     0.000    17.788  1003.659     0.000     0.000     0.000    58.784    60.108   118.892    21.119     9.608    11.106     8.109     9.972     8.803     0.000     0.000     0.000     0.000     0.000     0.000     0.000     0.000     0.000     0.000     4.115     0.000     0.000     1.195    -0.027     0.000     0.205    -4.644    -0.012     0.000    43.582     7.839     0.000     0.000     0.000     0.000     3.801    27.437    12.256     0.000     0.000     0.000     0.619    15.868     0.000     0.000     2.506     0.000     0.000     0.000
AGRR  16        0    2    0  0.8.31750E+02   411.455     0.000     0.000     0.000   784.518   393.265   163.990   450.203     0.000     0.000     0.000     3.315     0.000     0.000     1.000  1000.000    32.623    32.623     3.979     0.034     0.000    28.678    29.692     9.608    11.106     8.109     9.499     8.803    12.437     2.735     0.000     0.000     0.000     0.000     0.000     0.000     0.000     0.000     4.115     0.000     0.000    36.663    -0.782     0.000     6.287    -1.907     0.194     0.000    55.092     9.565    25.087     3.073     0.745     0.086     0.000     0.000     0.000     0.008     0.000     0.000     0.619    13.307     0.000     0.000     2.743     0.000     0.000     0.000
AGRR  17        0    2    0  0.8.74645E+01   411.455     0.000     0.000     0.000   784.518   394.713   183.068   520.313     0.000     0.000     0.000     0.745     0.000     0.000     1.000  1000.000     4.537     4.537     1.409     1.400     0.000     4.528    27.922     9.608    11.106     8.109     9.508     8.803     1.195     1.268     0.000     0.000     0.000     0.000     0.000     0.000     0.000     0.000     4.115     0.000     0.000    24.871    -0.530     0.000     4.265    -2.109     0.120     0.000    43.703     7.771     1.782     0.218     0.078     0.010     0.005     0.000     0.000     0.001     0.000     0.000     0.619    16.218     0.000     0.000     2.481     0.000     0.000     0.000
