1
    SWAT  Sept '05 VERSION2005                                                                           0/ 0/   0      0: 0: 0

    General Input/Output section (file.cio):                                        
    Sun Sep 17 22:23:55 2006 AVSWATX2003 MDL                                        
                                                                                    


       RCH      GIS   MON     AREAkm2  FLOW_INcms FLOW_OUTcms     EVAPcms    TLOSScms  SED_INtons SED_OUTtonsSEDCONCmg/kg   ORGN_INkg  ORGN_OUTkg   ORGP_INkg  ORGP_OUTkg    NO3_INkg   NO3_OUTkg    NH4_INkg   NH4_OUTkg    NO2_INkg   NO2_OUTkg   MINP_INkg  MINP_OUTkg   CHLA_INkg  CHLA_OUTkg   CBOD_INkg  CBOD_OUTkg  DISOX_INkg DISOX_OUTkg SOLPST_INmgSOLPST_OUTmg SORPST_INmgSORPST_OUTmg  REACTPSTmg    VOLPSTmg  SETTLPSTmgRESUSP_PSTmgDIFFUSEPSTmgREACBEDPSTmg   BURYPSTmg   BED_PSTmg BACTP_OUTctBACTLP_OUTct  CMETAL#1kg  CMETAL#2kg  CMETAL#3kg
REACH    1        0     4  0.9448E+03  0.2434E-05  0.0000E+00  0.2434E-05  0.0000E+00  0.1494E-03  0.0000E+00  0.0000E+00  0.1733E+01  0.0000E+00  0.3467E+01  0.0000E+00  0.5200E+01  0.0000E+00  0.0000E+00  0.0000E+00  0.0000E+00  0.0000E+00  0.5200E+01  0.0000E+00  0.0000E+00  0.0000E+00  0.0000E+00  0.0000E+00  0.5150E-01  0.0000E+00  0.0000E+00  0.0000E+00  0.0000E+00  0.0000E+00  0.0000E+00  0.0000E+00  0.0000E+00  0.0000E+00  0.0000E+00  0.0000E+00  0.0000E+00  0.0000E+00  0.0000E+00  0.0000E+00  0.0000E+00  0.0000E+00  0.0000E+00
REACH    2        0     4  0.3670E+03  0.3638E-05  0.0000E+00  0.3638E-05  0.0000E+00  0.2918E-03  0.0000E+00  0.0000E+00  0.1101E+01  0.0000E+00  0.2202E+01  0.0000E+00  0.3303E+01  0.0000E+00  0.0000E+00  0.0000E+00  0.0000E+00  0.0000E+00  0.3303E+01  0.0000E+00  0.0000E+00  0.0000E+00  0.0000E+00  0.0000E+00  0.7699E-01  0.0000E+00  0.0000E+00  0.0000E+00  0.0000E+00  0.0000E+00  0.0000E+00  0.0000E+00  0.0000E+00  0.0000E+00  0.0000E+00  0.0000E+00  0.0000E+00  0.0000E+00  0.0000E+00  0.0000E+00  0.0000E+00  0.0000E+00  0.0000E+00
REACH    1        0     5  0.9448E+03  0.3811E+01  0.3607E+01  0.1061E+00  0.0000E+00  0.1731E+06  0.2171E+03  0.1689E+02  0.1521E+06  0.1443E+06  0.2819E+05  0.2674E+05  0.2055E+05  0.1956E+05  0.0000E+00  0.0000E+00  0.0000E+00  0.0000E+00  0.2457E+04  0.2333E+04  0.0000E+00  0.0000E+00  0.0000E+00  0.0000E+00  0.8330E+05  0.7883E+05  0.0000E+00  0.0000E+00  0.0000E+00  0.0000E+00  0.0000E+00  0.0000E+00  0.0000E+00  0.0000E+00  0.0000E+00  0.0000E+00  0.0000E+00  0.0000E+00  0.1829E-04  0.1829E-04  0.0000E+00  0.0000E+00  0.0000E+00
REACH    2        0     5  0.3670E+03  0.2015E+01  0.1991E+01  0.2410E-01  0.0000E+00  0.1434E+06  0.1433E+06  0.2120E+05  0.9949E+05  0.9853E+05  0.1930E+05  0.1911E+05  0.1896E+05  0.1875E+05  0.0000E+00  0.0000E+00  0.0000E+00  0.0000E+00  0.1721E+04  0.1703E+04  0.0000E+00  0.0000E+00  0.0000E+00  0.0000E+00  0.4403E+05  0.4351E+05  0.0000E+00  0.0000E+00  0.0000E+00  0.0000E+00  0.0000E+00  0.0000E+00  0.0000E+00  0.0000E+00  0.0000E+00  0.0000E+00  0.0000E+00  0.0000E+00  0.2167E-04  0.2167E-04  0.0000E+00  0.0000E+00  0.0000E+00
REACH    1        0     6  0.9448E+03  0.1155E+01  0.1030E+01  0.2093E+00  0.0000E+00  0.4896E+04  0.3367E+02  0.8912E+01  0.2344E+04  0.5956E+04  0.6515E+03  0.1325E+04  0.3045E+05  0.2260E+05  0.0000E+00  0.0000E+00  0.0000E+00  0.0000E+00  0.1087E+03  0.1563E+03  0.0000E+00  0.0000E+00  0.0000E+00  0.0000E+00  0.2309E+05  0.2066E+05  0.0000E+00  0.0000E+00  0.0000E+00  0.0000E+00  0.0000E+00  0.0000E+00  0.0000E+00  0.0000E+00  0.0000E+00  0.0000E+00  0.0000E+00  0.0000E+00  0.4313E-04  0.4313E-04  0.0000E+00  0.0000E+00  0.0000E+00
REACH    2        0     6  0.3670E+03  0.7271E+00  0.6794E+00  0.4764E-01  0.0000E+00  0.2268E+04  0.2268E+04  0.6774E+03  0.4814E+03  0.4670E+03  0.1709E+03  0.1657E+03  0.3235E+05  0.3016E+05  0.0000E+00  0.0000E+00  0.0000E+00  0.0000E+00  0.2630E+02  0.2538E+02  0.0000E+00  0.0000E+00  0.0000E+00  0.0000E+00  0.1450E+05  0.1355E+05  0.0000E+00  0.0000E+00  0.0000E+00  0.0000E+00  0.0000E+00  0.0000E+00  0.0000E+00  0.0000E+00  0.0000E+00  0.0000E+00  0.0000E+00  0.0000E+00  0.3329E-04  0.3329E-04  0.0000E+00  0.0000E+00  0.0000E+00
REACH    1        0  1993  0.9448E+03  0.1666E+01  0.1557E+01  0.1028E+00  0.0000E+00  0.1780E+06  0.2508E+03  0.8595E+01  0.1544E+06  0.1503E+06  0.2885E+05  0.2806E+05  0.5101E+05  0.4216E+05  0.0000E+00  0.0000E+00  0.0000E+00  0.0000E+00  0.2571E+04  0.2489E+04  0.0000E+00  0.0000E+00  0.0000E+00  0.0000E+00  0.1064E+06  0.9950E+05  0.0000E+00  0.0000E+00  0.0000E+00  0.0000E+00  0.0000E+00  0.0000E+00  0.0000E+00  0.0000E+00  0.0000E+00  0.0000E+00  0.0000E+00  0.0000E+00  0.6142E-04  0.6142E-04  0.0000E+00  0.0000E+00  0.0000E+00
REACH    2        0  1993  0.3670E+03  0.9181E+00  0.8947E+00  0.2339E-01  0.0000E+00  0.1457E+06  0.1455E+06  0.7437E+04  0.9997E+05  0.9900E+05  0.1947E+05  0.1928E+05  0.5132E+05  0.4891E+05  0.0000E+00  0.0000E+00  0.0000E+00  0.0000E+00  0.1750E+04  0.1729E+04  0.0000E+00  0.0000E+00  0.0000E+00  0.0000E+00  0.5853E+05  0.5706E+05  0.0000E+00  0.0000E+00  0.0000E+00  0.0000E+00  0.0000E+00  0.0000E+00  0.0000E+00  0.0000E+00  0.0000E+00  0.0000E+00  0.0000E+00  0.0000E+00  0.5495E-04  0.5495E-04  0.0000E+00  0.0000E+00  0.0000E+00
REACH    1        0   0.8  0.9448E+03  0.2212E+01  0.2066E+01  0.1365E+00  0.0000E+00  0.2363E+06  0.3328E+03  0.1141E+02  0.2049E+06  0.1994E+06  0.3829E+05  0.3724E+05  0.6770E+05  0.5596E+05  0.0000E+00  0.0000E+00  0.0000E+00  0.0000E+00  0.3412E+04  0.3303E+04  0.0000E+00  0.0000E+00  0.0000E+00  0.0000E+00  0.1412E+06  0.1321E+06  0.0000E+00  0.0000E+00  0.0000E+00  0.0000E+00  0.0000E+00  0.0000E+00  0.0000E+00  0.0000E+00  0.0000E+00  0.0000E+00  0.0000E+00  0.0000E+00  0.8152E-04  0.8152E-04  0.0000E+00  0.0000E+00  0.0000E+00
REACH    2        0   0.8  0.3670E+03  0.1219E+01  0.1187E+01  0.3105E-01  0.0000E+00  0.1934E+06  0.1932E+06  0.9872E+04  0.1327E+06  0.1314E+06  0.2585E+05  0.2559E+05  0.6812E+05  0.6492E+05  0.0000E+00  0.0000E+00  0.0000E+00  0.0000E+00  0.2323E+04  0.2294E+04  0.0000E+00  0.0000E+00  0.0000E+00  0.0000E+00  0.7769E+05  0.7573E+05  0.0000E+00  0.0000E+00  0.0000E+00  0.0000E+00  0.0000E+00  0.0000E+00  0.0000E+00  0.0000E+00  0.0000E+00  0.0000E+00  0.0000E+00  0.0000E+00  0.7294E-04  0.7294E-04  0.0000E+00  0.0000E+00  0.0000E+00
