1
    SWAT  Sept '05 VERSION2005                                                                           0/ 0/   0      0: 0: 0

    General Input/Output section (file.cio):                                        
    Sun Sep 17 22:23:55 2006 AVSWATX2003 MDL                                        
                                                                                    


       SUB      GIS  MON   AREAkm2  PRECIPmm SNOMELTmm     PETmm      ETmm      SWmm    PERCmm    SURQmm    GW_Qmm    WYLDmm  SYLDt/ha ORGNkg/ha ORGPkg/haNSURQkg/ha SOLPkg/ha SEDPkg/ha LAT Q(mm)LATNO3kg/h
BIGSUB   1        0    4.57781E+03     0.000     0.000   191.108    48.636   454.502     0.000     0.000     0.000     0.000     0.000     0.000     0.000     0.000     0.000     0.000     0.000     0.000
BIGSUB   2        0    4.36702E+03     0.000     0.000   191.147    47.279   405.997     0.000     0.000     0.000     0.000     0.000     0.000     0.000     0.000     0.000     0.000     0.000     0.000
BIGSUB   1        0    5.57781E+03   310.000     0.000   139.941   107.144   643.842     0.000     8.437     0.000     8.438     0.516     0.926     0.114     0.031     0.003     0.053     0.002     0.000
BIGSUB   2        0    5.36702E+03   310.000     0.000   139.989   105.452   582.816    11.506     9.232     0.878    14.703     3.908     2.711     0.332     0.029     0.003     0.238     4.593     0.292
BIGSUB   1        0    6.57781E+03     0.000     0.000   259.789   112.192   531.650     0.000     2.060     0.000     2.062     0.045     0.032     0.004     0.005     0.001     0.005     0.002     0.000
BIGSUB   2        0    6.36702E+03     0.000     0.000   259.938   127.716   455.044     0.047     0.138     4.287     4.964     0.062     0.013     0.002     0.000     0.000     0.004     0.538     0.033
BIGSUB   1        0 1993.57781E+03   310.000     0.000   590.837   267.972   531.650     0.000    10.497     0.000    10.500     0.562     0.959     0.118     0.036     0.004     0.059     0.004     0.000
BIGSUB   2        0 1993.36702E+03   310.000     0.000   591.075   280.447   455.044    11.553     9.371     5.165    19.667     3.969     2.724     0.334     0.030     0.003     0.242     5.131     0.325
BIGSUB   1        0  0.8.57781E+03   411.455     0.000   784.202   355.672   531.650     0.000    13.932     0.000    13.937     0.746     1.273     0.156     0.048     0.005     0.078     0.005     0.000
BIGSUB   2        0  0.8.36702E+03   411.455     0.000   784.518   372.229   455.044    15.335    12.437     6.856    26.103     5.268     3.615     0.443     0.040     0.004     0.321     6.810     0.432
