                                  MODFLOW-2000
      U.S. GEOLOGICAL SURVEY MODULAR FINITE-DIFFERENCE GROUND-WATER FLOW MODEL
                           VERSION 1.13.00 01/22/2004


 This model run produced both GLOBAL and LIST files.  This is the LIST file.

 
 #GMS MODFLOW Simulation                                                         
 #13 September 2006                                                              
 THE FREE FORMAT OPTION HAS BEEN SELECTED
    1 LAYERS        62 ROWS        38 COLUMNS
    3 STRESS PERIOD(S) IN SIMULATION

 BAS6 -- BASIC PACKAGE, VERSION 6, 1/11/2000 INPUT READ FROM UNIT    3
          5 ELEMENTS IN IR ARRAY ARE USED BY BAS

 WEL6 -- WELL PACKAGE, VERSION 6, 1/11/2000 INPUT READ FROM UNIT    9
 No named parameters
 MAXIMUM OF      3 ACTIVE WELLS AT ONE TIME
 CELL-BY-CELL FLOWS WILL BE SAVED ON UNIT   40
 AUXILIARY WELL VARIABLE: IFACE           
         15 ELEMENTS IN RX ARRAY ARE USED BY WEL

 RIV6 -- RIVER PACKAGE, VERSION 6, 1/11/2000 INPUT READ FROM UNIT    8
 #           CoverageGUID ObjectType ID X Y
 #GMSCOMMENT 0dc90cec-9331-48ed-b039-c4ea5ea5e0b0 ARC 1 628740.0 1884453.4821429
 #GMSCOMMENT 0dc90cec-9331-48ed-b039-c4ea5ea5e0b0 ARC 2 628740.0 1894407.5390625
 No named parameters
 MAXIMUM OF     45 ACTIVE RIVER REACHES AT ONE TIME
 CELL-BY-CELL FLOWS WILL BE SAVED ON UNIT   40
 AUXILIARY RIVER VARIABLE: IFACE           
 AUXILIARY RIVER VARIABLE: CONDFACT        
 AUXILIARY RIVER VARIABLE: CELLGRP         
        405 ELEMENTS IN RX ARRAY ARE USED BY RIV

 GHB6 -- GHB PACKAGE, VERSION 6, 1/11/2000 INPUT READ FROM UNIT   11
 No named parameters
 MAXIMUM OF      0 ACTIVE GHB CELLS AT ONE TIME
 CELL-BY-CELL FLOWS WILL BE SAVED ON UNIT   40
 AUXILIARY GHB VARIABLE: IFACE           
 AUXILIARY GHB VARIABLE: CONDFACT        
 AUXILIARY GHB VARIABLE: CELLGRP         
          0 ELEMENTS IN RX ARRAY ARE USED BY GHB

 RCH6 -- RECHARGE PACKAGE, VERSION 6, 1/11/2000 INPUT READ FROM UNIT   16
 No named parameters
 OPTION 3 -- RECHARGE TO HIGHEST ACTIVE NODE IN EACH VERTICAL COLUMN
       2356 ELEMENTS IN RX ARRAY ARE USED BY RCH
       2356 ELEMENTS IN IR ARRAY ARE USED BY RCH

 CHD6 -- TIME-VARIANT SPECIFIED-HEAD PACKAGE, VERSION 6, 1/11/2000
 INPUT READ FROM UNIT   13
 # Generated by GMS 4.0   CHD file
 #           CoverageGUID ObjectType ID X Y
 #GMSCOMMENT 8cd060ff-7936-4618-87c5-04b2f14ae75b ARC 1 617175.0 1895760.0
 No named parameters
 MAXIMUM OF     61 TIME-VARIANT SPECIFIED-HEAD CELLS AT ONE TIME
 AUXILIARY CHD VARIABLE: CELLGRP         
        366 ELEMENTS IN RX ARRAY ARE USED BY CHD

       3142  ELEMENTS OF RX ARRAY USED OUT OF       3142
       2361  ELEMENTS OF IR ARRAY USED OUT OF       2361
1
 #GMS MODFLOW Simulation                                                         
 #13 September 2006                                                              



                     BOUNDARY ARRAY FOR LAYER   1
 READING ON UNIT    3 WITH FORMAT: (FREE)              

                1           2           3           4           5           6           7           8           9          10
               11          12          13          14          15          16          17          18          19          20
               21          22          23          24          25          26          27          28          29          30
               31          32          33          34          35          36          37          38
 ............................................................................................................................
   1            0           0           0           0           0           0           0           0           0           0
                0           0           0           0           0           0           0           0           0           0
                0           0           0           0           0           0           0           0           0           0
                0           0           0           0           0           0           0           0
   2            0           0           0           0           0           0           0           0           0           0
                0           0           0           0           0           0           0           0           0           0
                0           0           0           0           0           0           0           0           0           0
                0           0           0           0           0           0           0           0
   3            0           0           0           0           0           0           0           0           0           0
                0           0           0           0           0           0           0           0           0           0
                0           0           0           0           0           0           0           0           0           0
                0           0           0           0           0           0           0           0
   4            0           0           0           0           0           0           0           0           0           0
                0           0           0           0           0           0           0           0           0           0
                0           0           0           2           2           0           0           0           0           0
                0           0           0           0           0           0           0           0
   5            0           0           0           0           0           0           0           0           0           0
                0           0           0           0           0           0           0           0           0           0
                0           0           2           2           2           2           0           0           0           0
                0           0           0           0           0           0           0           0
   6            0           0           0           0           0           0           0           0           0           0
                0           0           0           0           0           0           0           0           0           0
                0           2           2           2           2           2           2           0           0           0
                0           0           0           0           0           0           0           0
   7            0           0           0           0           0           0           0           0           0           0
                0           0           0           0           0           0           0           0           0           0
                2           2           2           2           2           2           2           2           0           0
                0           0           0           0           0           0           0           0
   8            0           0           0           0           0           0           0           0           0           0
                0           0           0           0           0           0           0           0           2           2
                2           2           2           2           2           2           2           2           0           0
                0           0           0           0           0           0           0           0
   9            0           0           0           0           0           0           0           0           0           0
                0           0           0           0           0           0           0           2           2           2
                2           2           2           2           2           2           2           2           0           0
                0           0           0           0           0           0           0           0
  10            0           0           0           0           0           0           0           0           0           0
                0           0           0           0           0           0           2           2           2           2
                2           2           2           2           2           2           2           2           0           0
                0           0           0           0           0           0           0           0
  11            0           0           0           0           0           0           0           0           0           2
                0           0           0           2           0           2           2           2           2           2
                2           2           2           2           2           2           2           0           0           0
                0           0           0           0           0           0           0           0
  12            0           0           0           0           0           0           0           2           2           2
                2           2           2           2           2           2           2           2           2           2
                2           2           2           2           2           2           2           0           0           0
                0           0           0           0           0           0           0           0
  13            0           0           0           0           0           0           0           2           2           2
                2           2           2           2           2           2           2           2           2           2
                2           2           2           2           2           2           2           0           0           0
                0           0           0           0           0           0           0           0
  14            0           0           0           0           0           0           0           2           2           2
                2           2           2           2           2           2           2           2           2           2
                2           2           2           2           2           2           2           0           0           0
                0           0           0           0           0           0           0           0
  15            0           0           0           0           0           0           2           2           2           2
                2           2           2           2           2           2           2           2           2           2
                2           2           2           2           2           2           2           0           0           0
                0           0           0           0           0           0           0           0
  16            0           0           0           0           0           0           2           2           2           2
                2           2           2           2           2           2           2           2           2           2
                2           2           2           2           2           2           0           0           0           0
                0           0           0           0           0           0           0           0
  17            0           0           0           0           0           2           2           2           2           2
                2           2           2           2           2           2           2           2           2           2
                2           2           2           2           2           2           0           0           0           0
                0           0           0           0           0           0           0           0
  18            0           0           0           0           0           2           2           2           2           2
                2           2           2           2           2           2           2           2           2           2
                2           2           2           2           2           2           0           0           0           0
                0           0           0           0           0           0           0           0
  19            0           0           0           0           0           1           2           2           2           2
                2           2           2           2           2           2           2           2           2           2
                2           2           2           2           2           2           0           0           0           0
                0           0           0           0           0           0           0           0
  20            0           0           0           0           0           1           2           2           2           2
                2           2           2           2           2           2           2           2           2           2
                2           2           2           2           2           2           0           0           0           0
                0           0           0           0           0           0           0           0
  21            0           0           0           1           1           1           1           2           2           2
                2           2           2           2           2           2           2           2           2           2
                2           2           2           2           2           2           0           0           0           0
                0           0           0           0           0           0           0           0
  22            0           0           0           1           1           1           1           2           2           2
                2           2           2           2           2           2           2           2           2           2
                2           2           2           2           2           2           0           0           0           0
                0           0           0           0           0           0           0           0
  23            0           0           1           1           1           1           1           1           1           1
                1           1           1           1           2           2           2           2           2           2
                2           2           2           2           2           2           2           0           0           0
                0           0           0           0           0           0           0           0
  24            0           0           1           1           1           1           1           1           1           1
                1           1           1           1           1           2           2           2           2           2
                2           2           2           2           2           2           2           2           0           0
                0           0           0           0           0           0           0           0
  25            0           0           0           1           1           1           1           1           1           1
                1           1           1           1           2           2           2           2           2           2
                2           2           2           2           2           2           2           2           0           0
                0           0           0           0           0           0           0           0
  26            0           0           0           1           1           1           1           1           1           1
                1           1           1           1           2           2           2           2           2           2
                2           2           2           2           2           2           2           2           0           0
                0           0           0           0           0           0           0           0
  27            0           0           0           1           1           1           1           1           1           1
                1           1           1           1           2           2           2           2           2           2
                2           2           2           2           2           2           2           2           0           0
                0           0           0           0           0           0           0           0
  28            0           0           0           1           1           1           1           1           1           1
                1           1           1           1           1           1           1           2           2           2
                2           2           2           2           2           2           2           2           0           0
                0           0           0           0           0           0           0           0
  29            0           0           0           0           1           1           1           1           1           1
                1           1           1           1           1           1           1           2           2           2
                2           2           2           2           2           2           2           1           0           0
                0           0           0           0           0           0           0           0
  30            0           0           0           0           0           1           1           1           1           1
                1           1           1           1           1           1           1           1           2           2
                2           1           1           1           1           1           1           1           0           0
                0           0           0           0           0           0           0           0
  31            0           0           0           0           0           0           1           1           1           1
                1           1           1           1           1           1           1           1           1           2
                1           1           1           1           1           1           1           1           0           0
                0           0           0           0           0           0           0           0
  32            0           0           0           0           0           0           0           1           1           1
                1           1           1           1           1           1           1           1           1           1
                1           1           1           1           1           1           1           1           1           0
                0           0           0           0           0           0           0           0
  33            0           0           0           0           0           0           0           0           1           1
                1           1           1           1           1           1           1           1           1           1
                1           1           1           1           1           1           1           1           1           0
                0           0           0           0           0           0           0           0
  34            0           0           0           0           0           0           0           0           1           1
                1           1           1           1           1           1           1           1           1           1
                1           1           1           1           1           1           1           1           1           0
                0           0           0           0           0           0           0           0
  35            0           0           0           0           0           0           0           0           0           0
                1           1           1           1           1           1           1           1           1           1
                1           1           1           1           1           1           1           1           1           1
                0           0           0           0           0           0           0           0
  36            0           0           0           0           0           0           0           0           0           0
                0           1           1           1           1           1           1           1           1           1
                1           1           1           1           1           1           1           1           1           1
                0           0           0           0           0           0           0           0
  37            0           0           0           0           0           0           0           0           0           0
                0           0           0           1           1           1           1           1           1           1
                1           1           1           1           1           1           1           1           1           1
                1           0           1           0           0           0           0           0
  38            0           0           0           0           0           0           0           0           0           0
                0           0           0           0           1           1           1           1           1           1
                1           1           1           1           1           1           1           1           1           1
                1           1           1           1           1           0           0           0
  39            0           0           0           0           0           0           0           0           0           0
                0           0           0           1           1           1           1           1           1           1
                1           1           1           1           1           1           1           1           1           1
                1           1           1           1           1           0           0           0
  40            0           0           0           0           0           0           0           0           0           0
                0           0           0           0           1           1           1           1           1           1
                1           1           1           1           1           1           1           1           1           1
                1           1           1           1           1           0           0           0
  41            0           0           0           0           0           0           0           0           0           0
                0           0           0           0           0           1           1           1           1           1
                1           1           1           1           1           1           1           1           1           1
                1           1           1           1           1           1           0           0
  42            0           0           0           0           0           0           0           0           0           0
                0           0           0           0           0           1           1           1           1           1
                1           1           1           1           1           1           1           1           1           1
                1           1           1           1           1           1           0           0
  43            0           0           0           0           0           0           0           0           0           0
                0           0           0           0           1           1           1           1           1           1
                1           1           1           1           1           1           1           1           1           1
                1           1           1           1           1           1           0           0
  44            0           0           0           0           0           0           0           0           0           0
                0           0           0           0           1           1           1           1           1           1
                1           1           1           1           1           1           1           1           1           1
                1           1           1           1           1           0           0           0
  45            0           0           0           0           0           0           0           0           0           0
                0           0           0           0           0           0           1           0           1           1
                1           1           1           1           1           1           1           1           1           1
                1           1           1           1           0           0           0           0
  46            0           0           0           0           0           0           0           0           0           0
                0           0           0           0           0           0           0           0           1           1
                1           1           1           1           1           1           1           1           1           1
                1           1           1           1           0           0           0           0
  47            0           0           0           0           0           0           0           0           0           0
                0           0           0           0           0           0           1           1           1           1
                1           1           1           1           1           1           1           1           1           1
                1           1           1           0           0           0           0           0
  48            0           0           0           0           0           0           0           0           0           0
                0           0           0           0           0           0           0           1           1           1
                1           1           1           1           1           1           1           1           1           1
                1           1           0           0           0           0           0           0
  49            0           0           0           0           0           0           0           0           0           0
                0           0           0           0           0           0           0           0           1           1
                1           1           1           1           1           1           1           1           1           1
                1           1           0           0           0           0           0           0
  50            0           0           0           0           0           0           0           0           0           0
                0           0           0           0           0           0           0           0           0           1
                1           1           1           1           1           1           1           1           1           1
                1           0           0           0           0           0           0           0
  51            0           0           0           0           0           0           0           0           0           0
                0           0           0           0           0           0           0           0           1           1
                1           1           1           1           1           1           1           1           1           1
                1           1           0           0           0           0           0           0
  52            0           0           0           0           0           0           0           0           0           0
                0           0           0           0           0           0           0           0           0           1
                1           1           1           1           1           1           1           1           1           1
                1           0           0           0           0           0           0           0
  53            0           0           0           0           0           0           0           0           0           0
                0           0           0           0           0           0           0           0           0           1
                1           1           1           1           1           1           1           1           1           1
                1           0           0           0           0           0           0           0
  54            0           0           0           0           0           0           0           0           0           0
                0           0           0           0           0           0           0           0           1           1
                1           1           1           1           1           1           1           1           1           1
                1           0           0           0           0           0           0           0
  55            0           0           0           0           0           0           0           0           0           0
                0           0           0           0           0           0           0           0           1           1
                1           1           1           1           1           1           1           1           1           0
                0           0           0           0           0           0           0           0
  56            0           0           0           0           0           0           0           0           0           0
                0           0           0           0           0           0           0           0           0           0
                1           1           1           1           1           1           1           1           1           0
                0           0           0           0           0           0           0           0
  57            0           0           0           0           0           0           0           0           0           0
                0           0           0           0           0           0           0           0           0           0
                1           1           1           1           1           1           1           1           1           0
                0           0           0           0           0           0           0           0
  58            0           0           0           0           0           0           0           0           0           0
                0           0           0           0           0           0           0           0           0           0
                1           1           1           1           1           1           0           0           0           0
                0           0           0           0           0           0           0           0
  59            0           0           0           0           0           0           0           0           0           0
                0           0           0           0           0           0           0           0           0           1
                1           1           0           0           0           0           0           0           0           0
                0           0           0           0           0           0           0           0
  60            0           0           0           0           0           0           0           0           0           0
                0           0           0           0           0           0           0           0           0           0
                0           0           0           0           0           0           0           0           0           0
                0           0           0           0           0           0           0           0
  61            0           0           0           0           0           0           0           0           0           0
                0           0           0           0           0           0           0           0           0           0
                0           0           0           0           0           0           0           0           0           0
                0           0           0           0           0           0           0           0
  62            0           0           0           0           0           0           0           0           0           0
                0           0           0           0           0           0           0           0           0           0
                0           0           0           0           0           0           0           0           0           0
                0           0           0           0           0           0           0           0

 AQUIFER HEAD WILL BE SET TO -999.00     AT ALL NO-FLOW NODES (IBOUND=0).

             INITIAL HEAD =  -10.0000     FOR LAYER   1

 OUTPUT CONTROL IS SPECIFIED ONLY AT TIME STEPS FOR WHICH OUTPUT IS DESIRED
 HEAD PRINT FORMAT CODE IS   0    DRAWDOWN PRINT FORMAT CODE IS   0
 HEADS WILL BE SAVED ON UNIT   30    DRAWDOWNS WILL BE SAVED ON UNIT    0
1
                            STRESS PERIOD NO.    1, LENGTH =   30.00000    
                            -----------------------------------------------

                              NUMBER OF TIME STEPS =     4

                               MULTIPLIER FOR DELT =     1.000

                            INITIAL TIME STEP SIZE =   7.500000    

 WELL NO.  LAYER   ROW   COL   STRESS RATE         IFACE           
 ------------------------------------------------------------------
      1      1     19     14     -0.2000E+05       0.000    
      2      1     33     22     -0.5000E+05       0.000    
      3      1     47     25     -0.2000E+05       0.000    

      3 WELLS

 REACH NO.  LAYER   ROW   COL     STAGE      CONDUCTANCE     BOTTOM EL.         IFACE           CONDFACT        CELLGRP         
 -------------------------------------------------------------------------------------------------------------------------------
      1      1     26     18      -3.000           71.85          -10.00           6.000           7.185           2.000    
      2      1     27     18      -3.000          0.1188E+05      -10.00           6.000           1188.           2.000    
      3      1     28     18      -3.000           7000.          -10.00           6.000           700.0           2.000    
      4      1     28     19      -3.000           6840.          -10.00           6.000           684.0           2.000    
      5      1     29     19      -3.000           9676.          -10.00           6.000           967.6           2.000    
      6      1     29     20      -3.000           3286.          -10.00           6.000           328.6           2.000    
      7      1     30     19      -3.000           4420.          -10.00           6.000           442.0           2.000    
      8      1     30     20      -3.000           8105.          -10.00           6.000           810.5           2.000    
      9      1     31     19      -3.000           5325.          -10.00           6.000           532.5           2.000    
     10      1     31     20      -3.000           6146.          -10.00           6.000           614.6           2.000    
     11      1     32     20      -3.000           9980.          -10.00           6.000           998.0           2.000    
     12      1     33     20      -3.000           9980.          -10.00           6.000           998.0           2.000    
     13      1     34     20      -3.000           9980.          -10.00           6.000           998.0           2.000    
     14      1     35     20      -3.000           9980.          -10.00           6.000           998.0           2.000    
     15      1     36     20      -3.000           9980.          -10.00           6.000           998.0           2.000    
     16      1     37     20      -3.000           5879.          -10.00           6.000           587.9           1.000    
     17      1     37     20      -3.000           4101.          -10.00           6.000           410.1           2.000    
     18      1     38     20      -3.000           9980.          -10.00           6.000           998.0           1.000    
     19      1     39     20      -3.000           9980.          -10.00           6.000           998.0           1.000    
     20      1     40     20      -3.000           9980.          -10.00           6.000           998.0           1.000    
     21      1     41     20      -3.000           9980.          -10.00           6.000           998.0           1.000    
     22      1     42     20      -3.000           9980.          -10.00           6.000           998.0           1.000    
     23      1     43     20      -3.000           9980.          -10.00           6.000           998.0           1.000    
     24      1     44     20      -3.000          0.1004E+05      -10.00           6.000           1004.           1.000    
     25      1     45     20      -3.000          0.1216E+05      -10.00           6.000           1216.           1.000    
     26      1     46     20      -3.000           9980.          -10.00           6.000           998.0           1.000    
     27      1     47     20      -3.000           9980.          -10.00           6.000           998.0           1.000    
     28      1     48     20      -3.000           9980.          -10.00           6.000           998.0           1.000    
     29      1     49     20      -3.000           8577.          -10.00           6.000           857.7           1.000    
     30      1     49     21      -3.000           3117.          -10.00           6.000           311.7           1.000    
     31      1     50     21      -3.000          0.1088E+05      -10.00           6.000           1088.           1.000    
     32      1     51     21      -3.000           9980.          -10.00           6.000           998.0           1.000    
     33      1     52     21      -3.000           9980.          -10.00           6.000           998.0           1.000    
     34      1     53     21      -3.000          0.1145E+05      -10.00           6.000           1145.           1.000    
     35      1     54     21      -3.000          0.1493E+05      -10.00           6.000           1493.           1.000    
     36      1     55     21      -3.000           3041.          -10.00           6.000           304.1           1.000    
     37      1     55     22      -3.000          0.1190E+05      -10.00           6.000           1190.           1.000    
     38      1     55     23      -3.000          0.1067E+05      -10.00           6.000           1067.           1.000    
     39      1     55     24      -3.000          0.1148E+05      -10.00           6.000           1148.           1.000    
     40      1     55     25      -3.000           9770.          -10.00           6.000           977.0           1.000    
     41      1     55     26      -3.000           9770.          -10.00           6.000           977.0           1.000    
     42      1     55     27      -3.000          0.1008E+05      -10.00           6.000           1008.           1.000    
     43      1     55     28      -3.000           3811.          -10.00           6.000           381.1           1.000    
     44      1     56     28      -3.000           8887.          -10.00           6.000           888.7           1.000    
     45      1     57     30      -3.000           2479.          -10.00           6.000           247.9           1.000    

     45 RIVER REACHES

      0 GHB CELLS



                           RECHARGE
 READING ON UNIT   16 WITH FORMAT: (FREE)              

            1           2           3           4           5           6           7           8           9          10
           11          12          13          14          15          16          17          18          19          20
           21          22          23          24          25          26          27          28          29          30
           31          32          33          34          35          36          37          38
 ........................................................................................................................
   1    0.000       0.000       0.000       0.000       0.000       0.000       0.000       0.000       0.000       0.000    
        0.000       0.000       0.000       0.000       0.000       0.000       0.000       0.000       0.000       0.000    
        0.000       0.000       0.000       0.000       0.000       0.000       0.000       0.000       0.000       0.000    
        0.000       0.000       0.000       0.000       0.000       0.000       0.000       0.000    
   2    0.000       0.000       0.000       0.000       0.000       0.000       0.000       0.000       0.000       0.000    
        0.000       0.000       0.000       0.000       0.000       0.000       0.000       0.000       0.000       0.000    
        0.000       0.000       0.000       0.000       0.000       0.000       0.000       0.000       0.000       0.000    
        0.000       0.000       0.000       0.000       0.000       0.000       0.000       0.000    
   3    0.000       0.000       0.000       0.000       0.000       0.000       0.000       0.000       0.000       0.000    
        0.000       0.000       0.000       0.000       0.000       0.000       0.000       0.000       0.000       0.000    
        0.000       0.000       0.000       0.000       0.000       0.000       0.000       0.000       0.000       0.000    
        0.000       0.000       0.000       0.000       0.000       0.000       0.000       0.000    
   4    0.000       0.000       0.000       0.000       0.000       0.000       0.000       0.000       0.000       0.000    
        0.000       0.000       0.000       0.000       0.000       0.000       0.000       0.000       0.000       0.000    
        0.000       0.000       0.000       0.000       0.000       0.000       0.000       0.000       0.000       0.000    
        0.000       0.000       0.000       0.000       0.000       0.000       0.000       0.000    
   5    0.000       0.000       0.000       0.000       0.000       0.000       0.000       0.000       0.000       0.000    
        0.000       0.000       0.000       0.000       0.000       0.000       0.000       0.000       0.000       0.000    
        0.000       0.000       0.000       0.000       0.000       0.000       0.000       0.000       0.000       0.000    
        0.000       0.000       0.000       0.000       0.000       0.000       0.000       0.000    
   6    0.000       0.000       0.000       0.000       0.000       0.000       0.000       0.000       0.000       0.000    
        0.000       0.000       0.000       0.000       0.000       0.000       0.000       0.000       0.000       0.000    
        0.000       0.000       0.000       0.000       0.000       0.000       0.000       0.000       0.000       0.000    
        0.000       0.000       0.000       0.000       0.000       0.000       0.000       0.000    
   7    0.000       0.000       0.000       0.000       0.000       0.000       0.000       0.000       0.000       0.000    
        0.000       0.000       0.000       0.000       0.000       0.000       0.000       0.000       0.000       0.000    
        0.000       0.000       0.000       0.000       0.000       0.000       0.000       0.000       0.000       0.000    
        0.000       0.000       0.000       0.000       0.000       0.000       0.000       0.000    
   8    0.000       0.000       0.000       0.000       0.000       0.000       0.000       0.000       0.000       0.000    
        0.000       0.000       0.000       0.000       0.000       0.000       0.000       0.000       0.000       0.000    
        0.000       0.000       0.000       0.000       0.000       0.000       0.000       0.000       0.000       0.000    
        0.000       0.000       0.000       0.000       0.000       0.000       0.000       0.000    
   9    0.000       0.000       0.000       0.000       0.000       0.000       0.000       0.000       0.000       0.000    
        0.000       0.000       0.000       0.000       0.000       0.000       0.000       0.000       0.000       0.000    
        0.000       0.000       0.000       0.000       0.000       0.000       0.000       0.000       0.000       0.000    
        0.000       0.000       0.000       0.000       0.000       0.000       0.000       0.000    
  10    0.000       0.000       0.000       0.000       0.000       0.000       0.000       0.000       0.000       0.000    
        0.000       0.000       0.000       0.000       0.000       0.000       0.000       0.000       0.000       0.000    
        0.000       0.000       0.000       0.000       0.000       0.000       0.000       0.000       0.000       0.000    
        0.000       0.000       0.000       0.000       0.000       0.000       0.000       0.000    
  11    0.000       0.000       0.000       0.000       0.000       0.000       0.000       0.000       0.000       0.000    
        0.000       0.000       0.000       0.000       0.000       0.000       0.000       0.000       0.000       0.000    
        0.000       0.000       0.000       0.000       0.000       0.000       0.000       0.000       0.000       0.000    
        0.000       0.000       0.000       0.000       0.000       0.000       0.000       0.000    
  12    0.000       0.000       0.000       0.000       0.000       0.000       0.000       0.000       0.000       0.000    
        0.000       0.000       0.000       0.000       0.000       0.000       0.000       0.000       0.000       0.000    
        0.000       0.000       0.000       0.000       0.000       0.000       0.000       0.000       0.000       0.000    
        0.000       0.000       0.000       0.000       0.000       0.000       0.000       0.000    
  13    0.000       0.000       0.000       0.000       0.000       0.000       0.000       0.000       0.000       0.000    
        0.000       0.000       0.000       0.000       0.000       0.000       0.000       0.000       0.000       0.000    
        0.000       0.000       0.000       0.000       0.000       0.000       0.000       0.000       0.000       0.000    
        0.000       0.000       0.000       0.000       0.000       0.000       0.000       0.000    
  14    0.000       0.000       0.000       0.000       0.000       0.000       0.000       0.000       0.000       0.000    
        0.000       0.000       0.000       0.000       0.000       0.000       0.000       0.000       0.000       0.000    
        0.000       0.000       0.000       0.000       0.000       0.000       0.000       0.000       0.000       0.000    
        0.000       0.000       0.000       0.000       0.000       0.000       0.000       0.000    
  15    0.000       0.000       0.000       0.000       0.000       0.000       0.000       0.000       0.000       0.000    
        0.000       0.000       0.000       0.000       0.000       0.000       0.000       0.000       0.000       0.000    
        0.000       0.000       0.000       0.000       0.000       0.000       0.000       0.000       0.000       0.000    
        0.000       0.000       0.000       0.000       0.000       0.000       0.000       0.000    
  16    0.000       0.000       0.000       0.000       0.000       0.000       0.000       0.000       0.000       0.000    
        0.000       0.000       0.000       0.000       0.000       0.000       0.000       0.000       0.000       0.000    
        0.000       0.000       0.000       0.000       0.000       0.000       0.000       0.000       0.000       0.000    
        0.000       0.000       0.000       0.000       0.000       0.000       0.000       0.000    
  17    0.000       0.000       0.000       0.000       0.000       0.000       0.000       0.000       0.000       0.000    
        0.000       0.000       0.000       0.000       0.000       0.000       0.000       0.000       0.000       0.000    
        0.000       0.000       0.000       0.000       0.000       0.000       0.000       0.000       0.000       0.000    
        0.000       0.000       0.000       0.000       0.000       0.000       0.000       0.000    
  18    0.000       0.000       0.000       0.000       0.000       0.000       0.000       0.000       0.000       0.000    
        0.000       0.000       0.000       0.000       0.000       0.000       0.000       0.000       0.000       0.000    
        0.000       0.000       0.000       0.000       0.000       0.000       0.000       0.000       0.000       0.000    
        0.000       0.000       0.000       0.000       0.000       0.000       0.000       0.000    
  19    0.000       0.000       0.000       0.000       0.000       0.000       0.000       0.000       0.000       0.000    
        0.000       0.000       0.000       0.000       0.000       0.000       0.000       0.000       0.000       0.000    
        0.000       0.000       0.000       0.000       0.000       0.000       0.000       0.000       0.000       0.000    
        0.000       0.000       0.000       0.000       0.000       0.000       0.000       0.000    
  20    0.000       0.000       0.000       0.000       0.000       0.000       0.000       0.000       0.000       0.000    
        0.000       0.000       0.000       0.000       0.000       0.000       0.000       0.000       0.000       0.000    
        0.000       0.000       0.000       0.000       0.000       0.000       0.000       0.000       0.000       0.000    
        0.000       0.000       0.000       0.000       0.000       0.000       0.000       0.000    
  21    0.000       0.000       0.000       0.000       0.000       0.000       0.000       0.000       0.000       0.000    
        0.000       0.000       0.000       0.000       0.000       0.000       0.000       0.000       0.000       0.000    
        0.000       0.000       0.000       0.000       0.000       0.000       0.000       0.000       0.000       0.000    
        0.000       0.000       0.000       0.000       0.000       0.000       0.000       0.000    
  22    0.000       0.000       0.000       0.000       0.000       0.000       0.000       0.000       0.000       0.000    
        0.000       0.000       0.000       0.000       0.000       0.000       0.000       0.000       0.000       0.000    
        0.000       0.000       0.000       0.000       0.000       0.000       0.000       0.000       0.000       0.000    
        0.000       0.000       0.000       0.000       0.000       0.000       0.000       0.000    
  23    0.000       0.000       0.000       0.000       0.000       0.000       0.000       0.000       0.000       0.000    
        0.000       0.000       0.000       0.000       0.000       0.000       0.000       0.000       0.000       0.000    
        0.000       0.000       0.000       0.000       0.000       0.000       0.000       0.000       0.000       0.000    
        0.000       0.000       0.000       0.000       0.000       0.000       0.000       0.000    
  24    0.000       0.000       0.000       0.000       0.000       0.000       0.000       0.000       0.000       0.000    
        0.000       0.000       0.000       0.000       0.000       0.000       0.000       0.000       0.000       0.000    
        0.000       0.000       0.000       0.000       0.000       0.000       0.000       0.000       0.000       0.000    
        0.000       0.000       0.000       0.000       0.000       0.000       0.000       0.000    
  25    0.000       0.000       0.000       0.000       0.000       0.000       0.000       0.000       0.000       0.000    
        0.000       0.000       0.000       0.000       0.000       0.000       0.000       0.000       0.000       0.000    
        0.000       0.000       0.000       0.000       0.000       0.000       0.000       0.000       0.000       0.000    
        0.000       0.000       0.000       0.000       0.000       0.000       0.000       0.000    
  26    0.000       0.000       0.000       0.000       0.000       0.000       0.000       0.000       0.000       0.000    
        0.000       0.000       0.000       0.000       0.000       0.000       0.000       0.000       0.000       0.000    
        0.000       0.000       0.000       0.000       0.000       0.000       0.000       0.000       0.000       0.000    
        0.000       0.000       0.000       0.000       0.000       0.000       0.000       0.000    
  27    0.000       0.000       0.000       0.000       0.000       0.000       0.000       0.000       0.000       0.000    
        0.000       0.000       0.000       0.000       0.000       0.000       0.000       0.000       0.000       0.000    
        0.000       0.000       0.000       0.000       0.000       0.000       0.000       0.000       0.000       0.000    
        0.000       0.000       0.000       0.000       0.000       0.000       0.000       0.000    
  28    0.000       0.000       0.000       0.000       0.000       0.000       0.000       0.000       0.000       0.000    
        0.000       0.000       0.000       0.000       0.000       0.000       0.000       0.000       0.000       0.000    
        0.000       0.000       0.000       0.000       0.000       0.000       0.000       0.000       0.000       0.000    
        0.000       0.000       0.000       0.000       0.000       0.000       0.000       0.000    
  29    0.000       0.000       0.000       0.000       0.000       0.000       0.000       0.000       0.000       0.000    
        0.000       0.000       0.000       0.000       0.000       0.000       0.000       0.000       0.000       0.000    
        0.000       0.000       0.000       0.000       0.000       0.000       0.000       0.000       0.000       0.000    
        0.000       0.000       0.000       0.000       0.000       0.000       0.000       0.000    
  30    0.000       0.000       0.000       0.000       0.000       0.000       0.000       0.000       0.000       0.000    
        0.000       0.000       0.000       0.000       0.000       0.000       0.000       0.000       0.000       0.000    
        0.000       0.000       0.000       0.000       0.000       0.000       0.000       0.000       0.000       0.000    
        0.000       0.000       0.000       0.000       0.000       0.000       0.000       0.000    
  31    0.000       0.000       0.000       0.000       0.000       0.000       0.000       0.000       0.000       0.000    
        0.000       0.000       0.000       0.000       0.000       0.000       0.000       0.000       0.000       0.000    
        0.000       0.000       0.000       0.000       0.000       0.000       0.000       0.000       0.000       0.000    
        0.000       0.000       0.000       0.000       0.000       0.000       0.000       0.000    
  32    0.000       0.000       0.000       0.000       0.000       0.000       0.000       0.000       0.000       0.000    
        0.000       0.000       0.000       0.000       0.000       0.000       0.000       0.000       0.000       0.000    
        0.000       0.000       0.000       0.000       0.000       0.000       0.000       0.000       0.000       0.000    
        0.000       0.000       0.000       0.000       0.000       0.000       0.000       0.000    
  33    0.000       0.000       0.000       0.000       0.000       0.000       0.000       0.000       0.000       0.000    
        0.000       0.000       0.000       0.000       0.000       0.000       0.000       0.000       0.000       0.000    
        0.000       0.000       0.000       0.000       0.000       0.000       0.000       0.000       0.000       0.000    
        0.000       0.000       0.000       0.000       0.000       0.000       0.000       0.000    
  34    0.000       0.000       0.000       0.000       0.000       0.000       0.000       0.000       0.000       0.000    
        0.000       0.000       0.000       0.000       0.000       0.000       0.000       0.000       0.000       0.000    
        0.000       0.000       0.000       0.000       0.000       0.000       0.000       0.000       0.000       0.000    
        0.000       0.000       0.000       0.000       0.000       0.000       0.000       0.000    
  35    0.000       0.000       0.000       0.000       0.000       0.000       0.000       0.000       0.000       0.000    
        0.000       0.000       0.000       0.000       0.000       0.000       0.000       0.000       0.000       0.000    
        0.000       0.000       0.000       0.000       0.000       0.000       0.000       0.000       0.000       0.000    
        0.000       0.000       0.000       0.000       0.000       0.000       0.000       0.000    
  36    0.000       0.000       0.000       0.000       0.000       0.000       0.000       0.000       0.000       0.000    
        0.000       0.000       0.000       0.000       0.000       0.000       0.000       0.000       0.000       0.000    
        0.000       0.000       0.000       0.000       0.000       0.000       0.000       0.000       0.000       0.000    
        0.000       0.000       0.000       0.000       0.000       0.000       0.000       0.000    
  37    0.000       0.000       0.000       0.000       0.000       0.000       0.000       0.000       0.000       0.000    
        0.000       0.000       0.000       0.000       0.000       0.000       0.000       0.000       0.000       0.000    
        0.000       0.000       0.000       0.000       0.000       0.000       0.000       0.000       0.000       0.000    
        0.000       0.000       0.000       0.000       0.000       0.000       0.000       0.000    
  38    0.000       0.000       0.000       0.000       0.000       0.000       0.000       0.000       0.000       0.000    
        0.000       0.000       0.000       0.000       0.000       0.000       0.000       0.000       0.000       0.000    
        0.000       0.000       0.000       0.000       0.000       0.000       0.000       0.000       0.000       0.000    
        0.000       0.000       0.000       0.000       0.000       0.000       0.000       0.000    
  39    0.000       0.000       0.000       0.000       0.000       0.000       0.000       0.000       0.000       0.000    
        0.000       0.000       0.000       0.000       0.000       0.000       0.000       0.000       0.000       0.000    
        0.000       0.000       0.000       0.000       0.000       0.000       0.000       0.000       0.000       0.000    
        0.000       0.000       0.000       0.000       0.000       0.000       0.000       0.000    
  40    0.000       0.000       0.000       0.000       0.000       0.000       0.000       0.000       0.000       0.000    
        0.000       0.000       0.000       0.000       0.000       0.000       0.000       0.000       0.000       0.000    
        0.000       0.000       0.000       0.000       0.000       0.000       0.000       0.000       0.000       0.000    
        0.000       0.000       0.000       0.000       0.000       0.000       0.000       0.000    
  41    0.000       0.000       0.000       0.000       0.000       0.000       0.000       0.000       0.000       0.000    
        0.000       0.000       0.000       0.000       0.000       0.000       0.000       0.000       0.000       0.000    
        0.000       0.000       0.000       0.000       0.000       0.000       0.000       0.000       0.000       0.000    
        0.000       0.000       0.000       0.000       0.000       0.000       0.000       0.000    
  42    0.000       0.000       0.000       0.000       0.000       0.000       0.000       0.000       0.000       0.000    
        0.000       0.000       0.000       0.000       0.000       0.000       0.000       0.000       0.000       0.000    
        0.000       0.000       0.000       0.000       0.000       0.000       0.000       0.000       0.000       0.000    
        0.000       0.000       0.000       0.000       0.000       0.000       0.000       0.000    
  43    0.000       0.000       0.000       0.000       0.000       0.000       0.000       0.000       0.000       0.000    
        0.000       0.000       0.000       0.000       0.000       0.000       0.000       0.000       0.000       0.000    
        0.000       0.000       0.000       0.000       0.000       0.000       0.000       0.000       0.000       0.000    
        0.000       0.000       0.000       0.000       0.000       0.000       0.000       0.000    
  44    0.000       0.000       0.000       0.000       0.000       0.000       0.000       0.000       0.000       0.000    
        0.000       0.000       0.000       0.000       0.000       0.000       0.000       0.000       0.000       0.000    
        0.000       0.000       0.000       0.000       0.000       0.000       0.000       0.000       0.000       0.000    
        0.000       0.000       0.000       0.000       0.000       0.000       0.000       0.000    
  45    0.000       0.000       0.000       0.000       0.000       0.000       0.000       0.000       0.000       0.000    
        0.000       0.000       0.000       0.000       0.000       0.000       0.000       0.000       0.000       0.000    
        0.000       0.000       0.000       0.000       0.000       0.000       0.000       0.000       0.000       0.000    
        0.000       0.000       0.000       0.000       0.000       0.000       0.000       0.000    
  46    0.000       0.000       0.000       0.000       0.000       0.000       0.000       0.000       0.000       0.000    
        0.000       0.000       0.000       0.000       0.000       0.000       0.000       0.000       0.000       0.000    
        0.000       0.000       0.000       0.000       0.000       0.000       0.000       0.000       0.000       0.000    
        0.000       0.000       0.000       0.000       0.000       0.000       0.000       0.000    
  47    0.000       0.000       0.000       0.000       0.000       0.000       0.000       0.000       0.000       0.000    
        0.000       0.000       0.000       0.000       0.000       0.000       0.000       0.000       0.000       0.000    
        0.000       0.000       0.000       0.000       0.000       0.000       0.000       0.000       0.000       0.000    
        0.000       0.000       0.000       0.000       0.000       0.000       0.000       0.000    
  48    0.000       0.000       0.000       0.000       0.000       0.000       0.000       0.000       0.000       0.000    
        0.000       0.000       0.000       0.000       0.000       0.000       0.000       0.000       0.000       0.000    
        0.000       0.000       0.000       0.000       0.000       0.000       0.000       0.000       0.000       0.000    
        0.000       0.000       0.000       0.000       0.000       0.000       0.000       0.000    
  49    0.000       0.000       0.000       0.000       0.000       0.000       0.000       0.000       0.000       0.000    
        0.000       0.000       0.000       0.000       0.000       0.000       0.000       0.000       0.000       0.000    
        0.000       0.000       0.000       0.000       0.000       0.000       0.000       0.000       0.000       0.000    
        0.000       0.000       0.000       0.000       0.000       0.000       0.000       0.000    
  50    0.000       0.000       0.000       0.000       0.000       0.000       0.000       0.000       0.000       0.000    
        0.000       0.000       0.000       0.000       0.000       0.000       0.000       0.000       0.000       0.000    
        0.000       0.000       0.000       0.000       0.000       0.000       0.000       0.000       0.000       0.000    
        0.000       0.000       0.000       0.000       0.000       0.000       0.000       0.000    
  51    0.000       0.000       0.000       0.000       0.000       0.000       0.000       0.000       0.000       0.000    
        0.000       0.000       0.000       0.000       0.000       0.000       0.000       0.000       0.000       0.000    
        0.000       0.000       0.000       0.000       0.000       0.000       0.000       0.000       0.000       0.000    
        0.000       0.000       0.000       0.000       0.000       0.000       0.000       0.000    
  52    0.000       0.000       0.000       0.000       0.000       0.000       0.000       0.000       0.000       0.000    
        0.000       0.000       0.000       0.000       0.000       0.000       0.000       0.000       0.000       0.000    
        0.000       0.000       0.000       0.000       0.000       0.000       0.000       0.000       0.000       0.000    
        0.000       0.000       0.000       0.000       0.000       0.000       0.000       0.000    
  53    0.000       0.000       0.000       0.000       0.000       0.000       0.000       0.000       0.000       0.000    
        0.000       0.000       0.000       0.000       0.000       0.000       0.000       0.000       0.000       0.000    
        0.000       0.000       0.000       0.000       0.000       0.000       0.000       0.000       0.000       0.000    
        0.000       0.000       0.000       0.000       0.000       0.000       0.000       0.000    
  54    0.000       0.000       0.000       0.000       0.000       0.000       0.000       0.000       0.000       0.000    
        0.000       0.000       0.000       0.000       0.000       0.000       0.000       0.000       0.000       0.000    
        0.000       0.000       0.000       0.000       0.000       0.000       0.000       0.000       0.000       0.000    
        0.000       0.000       0.000       0.000       0.000       0.000       0.000       0.000    
  55    0.000       0.000       0.000       0.000       0.000       0.000       0.000       0.000       0.000       0.000    
        0.000       0.000       0.000       0.000       0.000       0.000       0.000       0.000       0.000       0.000    
        0.000       0.000       0.000       0.000       0.000       0.000       0.000       0.000       0.000       0.000    
        0.000       0.000       0.000       0.000       0.000       0.000       0.000       0.000    
  56    0.000       0.000       0.000       0.000       0.000       0.000       0.000       0.000       0.000       0.000    
        0.000       0.000       0.000       0.000       0.000       0.000       0.000       0.000       0.000       0.000    
        0.000       0.000       0.000       0.000       0.000       0.000       0.000       0.000       0.000       0.000    
        0.000       0.000       0.000       0.000       0.000       0.000       0.000       0.000    
  57    0.000       0.000       0.000       0.000       0.000       0.000       0.000       0.000       0.000       0.000    
        0.000       0.000       0.000       0.000       0.000       0.000       0.000       0.000       0.000       0.000    
        0.000       0.000       0.000       0.000       0.000       0.000       0.000       0.000       0.000       0.000    
        0.000       0.000       0.000       0.000       0.000       0.000       0.000       0.000    
  58    0.000       0.000       0.000       0.000       0.000       0.000       0.000       0.000       0.000       0.000    
        0.000       0.000       0.000       0.000       0.000       0.000       0.000       0.000       0.000       0.000    
        0.000       0.000       0.000       0.000       0.000       0.000       0.000       0.000       0.000       0.000    
        0.000       0.000       0.000       0.000       0.000       0.000       0.000       0.000    
  59    0.000       0.000       0.000       0.000       0.000       0.000       0.000       0.000       0.000       0.000    
        0.000       0.000       0.000       0.000       0.000       0.000       0.000       0.000       0.000       0.000    
        0.000       0.000       0.000       0.000       0.000       0.000       0.000       0.000       0.000       0.000    
        0.000       0.000       0.000       0.000       0.000       0.000       0.000       0.000    
  60    0.000       0.000       0.000       0.000       0.000       0.000       0.000       0.000       0.000       0.000    
        0.000       0.000       0.000       0.000       0.000       0.000       0.000       0.000       0.000       0.000    
        0.000       0.000       0.000       0.000       0.000       0.000       0.000       0.000       0.000       0.000    
        0.000       0.000       0.000       0.000       0.000       0.000       0.000       0.000    
  61    0.000       0.000       0.000       0.000       0.000       0.000       0.000       0.000       0.000       0.000    
        0.000       0.000       0.000       0.000       0.000       0.000       0.000       0.000       0.000       0.000    
        0.000       0.000       0.000       0.000       0.000       0.000       0.000       0.000       0.000       0.000    
        0.000       0.000       0.000       0.000       0.000       0.000       0.000       0.000    
  62    0.000       0.000       0.000       0.000       0.000       0.000       0.000       0.000       0.000       0.000    
        0.000       0.000       0.000       0.000       0.000       0.000       0.000       0.000       0.000       0.000    
        0.000       0.000       0.000       0.000       0.000       0.000       0.000       0.000       0.000       0.000    
        0.000       0.000       0.000       0.000       0.000       0.000       0.000       0.000    

 CHD NO.   LAYER   ROW   COL    START HEAD        END HEAD         CELLGRP         
 ----------------------------------------------------------------------------------
      1      1      6     22      -5.000          -5.000           1.000    
      2      1      7     21      -5.000          -5.000           1.000    
      3      1      8     19      -5.000          -5.000           1.000    
      4      1      8     20      -5.000          -5.000           1.000    
      5      1      9     18      -5.000          -5.000           1.000    
      6      1     10     17      -5.000          -5.000           1.000    
      7      1     10     18      -5.000          -5.000           1.000    
      8      1     11     10      -5.000          -5.000           1.000    
      9      1     11     14      -5.000          -5.000           1.000    
     10      1     11     16      -5.000          -5.000           1.000    
     11      1     12      8      -5.000          -5.000           1.000    
     12      1     12      9      -5.000          -5.000           1.000    
     13      1     12     12      -5.000          -5.000           1.000    
     14      1     12     13      -5.000          -5.000           1.000    
     15      1     14      8      -5.000          -5.000           1.000    
     16      1     15      7      -5.000          -5.000           1.000    
     17      1     16      7      -5.000          -5.000           1.000    
     18      1     17      6      -5.000          -5.000           1.000    
     19      1     18      6      -5.000          -5.000           1.000    
     20      1     19      6      -5.000          -5.000           1.000    
     21      1     20      6      -5.000          -5.000           1.000    
     22      1     21      4      -5.000          -5.000           1.000    
     23      1     23      3      -5.000          -5.000           1.000    
     24      1     24      3      -5.000          -5.000           1.000    
     25      1     25      4      -5.000          -5.000           1.000    
     26      1     26      4      -5.000          -5.000           1.000    
     27      1     27      4      -5.000          -5.000           1.000    
     28      1     28      4      -5.000          -5.000           1.000    
     29      1     29      5      -5.000          -5.000           1.000    
     30      1     30      6      -5.000          -5.000           1.000    
     31      1     30      7      -5.000          -5.000           1.000    
     32      1     31      7      -5.000          -5.000           1.000    
     33      1     32      8      -5.000          -5.000           1.000    
     34      1     32      9      -5.000          -5.000           1.000    
     35      1     33      9      -5.000          -5.000           1.000    
     36      1     34      9      -5.000          -5.000           1.000    
     37      1     34     10      -5.000          -5.000           1.000    
     38      1     35     11      -5.000          -5.000           1.000    
     39      1     36     12      -5.000          -5.000           1.000    
     40      1     37     14      -5.000          -5.000           1.000    
     41      1     39     14      -5.000          -5.000           1.000    
     42      1     40     15      -5.000          -5.000           1.000    
     43      1     41     16      -5.000          -5.000           1.000    
     44      1     42     16      -5.000          -5.000           1.000    
     45      1     44     15      -5.000          -5.000           1.000    
     46      1     44     16      -5.000          -5.000           1.000    
     47      1     44     18      -5.000          -5.000           1.000    
     48      1     45     17      -5.000          -5.000           1.000    
     49      1     45     19      -5.000          -5.000           1.000    
     50      1     46     19      -5.000          -5.000           1.000    
     51      1     47     17      -5.000          -5.000           1.000    
     52      1     48     18      -5.000          -5.000           1.000    
     53      1     49     19      -5.000          -5.000           1.000    
     54      1     51     19      -5.000          -5.000           1.000    
     55      1     52     20      -5.000          -5.000           1.000    
     56      1     53     20      -5.000          -5.000           1.000    
     57      1     54     19      -5.000          -5.000           1.000    
     58      1     55     19      -5.000          -5.000           1.000    
     59      1     56     21      -5.000          -5.000           1.000    
     60      1     57     21      -5.000          -5.000           1.000    
     61      1     59     20      -5.000          -5.000           1.000    


     61 TIME-VARIANT SPECIFIED-HEAD CELLS
 
 SOLVING FOR HEAD 

 NO OUTPUT CONTROL FOR STRESS PERIOD    1   TIME STEP   1


 ***Link-MT3DMS Package***
 OPENING LINK-MT3DMS OUTPUT FILE: Waters3.hff                                                                                                                                                                                             
 ON UNIT NUMBER:   333
 FILE TYPE: UNFORMATTED
 HEADER OPTION: STANDARD
 ***Link-MT3DMS Package***


 SAVING SATURATED THICKNESS AND FLOW TERMS ON UNIT  333 FOR MT3DMS
 BY THE LINK-MT3DMS PACKAGE V6.2 AT TIME STEP    1, STRESS PERIOD    1

 
 SOLVING FOR HEAD 

 NO OUTPUT CONTROL FOR STRESS PERIOD    1   TIME STEP   2

 SAVING SATURATED THICKNESS AND FLOW TERMS ON UNIT  333 FOR MT3DMS
 BY THE LINK-MT3DMS PACKAGE V6.2 AT TIME STEP    2, STRESS PERIOD    1

 
 SOLVING FOR HEAD 

 NO OUTPUT CONTROL FOR STRESS PERIOD    1   TIME STEP   3

 SAVING SATURATED THICKNESS AND FLOW TERMS ON UNIT  333 FOR MT3DMS
 BY THE LINK-MT3DMS PACKAGE V6.2 AT TIME STEP    3, STRESS PERIOD    1

 
 SOLVING FOR HEAD 

 OUTPUT CONTROL FOR STRESS PERIOD    1   TIME STEP   4
    PRINT HEAD FOR ALL LAYERS
    PRINT DRAWDOWN FOR ALL LAYERS
    PRINT BUDGET

 SAVING SATURATED THICKNESS AND FLOW TERMS ON UNIT  333 FOR MT3DMS
 BY THE LINK-MT3DMS PACKAGE V6.2 AT TIME STEP    4, STRESS PERIOD    1

1
              HEAD IN LAYER   1 AT END OF TIME STEP   4 IN STRESS PERIOD    1
  ---------------------------------------------------------------------------

            1           2           3           4           5           6           7           8           9          10
           11          12          13          14          15          16          17          18          19          20
           21          22          23          24          25          26          27          28          29          30
           31          32          33          34          35          36          37          38
 ........................................................................................................................
   1   -999.0      -999.0      -999.0      -999.0      -999.0      -999.0      -999.0      -999.0      -999.0      -999.0    
       -999.0      -999.0      -999.0      -999.0      -999.0      -999.0      -999.0      -999.0      -999.0      -999.0    
       -999.0      -999.0      -999.0      -999.0      -999.0      -999.0      -999.0      -999.0      -999.0      -999.0    
       -999.0      -999.0      -999.0      -999.0      -999.0      -999.0      -999.0      -999.0    
   2   -999.0      -999.0      -999.0      -999.0      -999.0      -999.0      -999.0      -999.0      -999.0      -999.0    
       -999.0      -999.0      -999.0      -999.0      -999.0      -999.0      -999.0      -999.0      -999.0      -999.0    
       -999.0      -999.0      -999.0      -999.0      -999.0      -999.0      -999.0      -999.0      -999.0      -999.0    
       -999.0      -999.0      -999.0      -999.0      -999.0      -999.0      -999.0      -999.0    
   3   -999.0      -999.0      -999.0      -999.0      -999.0      -999.0      -999.0      -999.0      -999.0      -999.0    
       -999.0      -999.0      -999.0      -999.0      -999.0      -999.0      -999.0      -999.0      -999.0      -999.0    
       -999.0      -999.0      -999.0      -999.0      -999.0      -999.0      -999.0      -999.0      -999.0      -999.0    
       -999.0      -999.0      -999.0      -999.0      -999.0      -999.0      -999.0      -999.0    
   4   -999.0      -999.0      -999.0      -999.0      -999.0      -999.0      -999.0      -999.0      -999.0      -999.0    
       -999.0      -999.0      -999.0      -999.0      -999.0      -999.0      -999.0      -999.0      -999.0      -999.0    
       -999.0      -999.0      -999.0      -5.048      -5.050      -999.0      -999.0      -999.0      -999.0      -999.0    
       -999.0      -999.0      -999.0      -999.0      -999.0      -999.0      -999.0      -999.0    
   5   -999.0      -999.0      -999.0      -999.0      -999.0      -999.0      -999.0      -999.0      -999.0      -999.0    
       -999.0      -999.0      -999.0      -999.0      -999.0      -999.0      -999.0      -999.0      -999.0      -999.0    
[...]
       -999.0      -999.0      -999.0      -999.0      -999.0      -999.0      -999.0      -999.0      -999.0      -6.238    
       -6.627      -6.270      -6.000      -5.783      -5.634      -5.584      -5.588      -5.609      -5.627      -5.634    
       -5.633      -999.0      -999.0      -999.0      -999.0      -999.0      -999.0      -999.0    
  51   -999.0      -999.0      -999.0      -999.0      -999.0      -999.0      -999.0      -999.0      -999.0      -999.0    
       -999.0      -999.0      -999.0      -999.0      -999.0      -999.0      -999.0      -999.0      -5.000      -5.699    
       -6.553      -6.347      -6.171      -6.026      -5.921      -5.863      -5.837      -5.823      -5.811      -5.798    
       -5.789      -5.789      -999.0      -999.0      -999.0      -999.0      -999.0      -999.0    
  52   -999.0      -999.0      -999.0      -999.0      -999.0      -999.0      -999.0      -999.0      -999.0      -999.0    
       -999.0      -999.0      -999.0      -999.0      -999.0      -999.0      -999.0      -999.0      -999.0      -5.000    
       -6.445      -6.393      -6.309      -6.228      -6.160      -6.110      -6.072      -6.035      -5.996      -5.957    
       -5.934      -999.0      -999.0      -999.0      -999.0      -999.0      -999.0      -999.0    
  53   -999.0      -999.0      -999.0      -999.0      -999.0      -999.0      -999.0      -999.0      -999.0      -999.0    
       -999.0      -999.0      -999.0      -999.0      -999.0      -999.0      -999.0      -999.0      -999.0      -5.000    
       -6.483      -6.471      -6.446      -6.414      -6.379      -6.344      -6.305      -6.250      -6.180      -6.099    
       -6.055      -999.0      -999.0      -999.0      -999.0      -999.0      -999.0      -999.0    
  54   -999.0      -999.0      -999.0      -999.0      -999.0      -999.0      -999.0      -999.0      -999.0      -999.0    
       -999.0      -999.0      -999.0      -999.0      -999.0      -999.0      -999.0      -999.0      -5.000      -5.535    
       -6.570      -6.561      -6.589      -6.603      -6.598      -6.584      -6.552      -6.483      -6.373      -6.202    
       -6.131      -999.0      -999.0      -999.0      -999.0      -999.0      -999.0      -999.0    
  55   -999.0      -999.0      -999.0      -999.0      -999.0      -999.0      -999.0      -999.0      -999.0      -999.0    
       -999.0      -999.0      -999.0      -999.0      -999.0      -999.0      -999.0      -999.0      -5.000      -5.547    
       -6.105      -6.612      -6.747      -6.810      -6.828      -6.840      -6.837      -6.758      -6.628      -999.0    
       -999.0      -999.0      -999.0      -999.0      -999.0      -999.0      -999.0      -999.0    
  56   -999.0      -999.0      -999.0      -999.0      -999.0      -999.0      -999.0      -999.0      -999.0      -999.0    
       -999.0      -999.0      -999.0      -999.0      -999.0      -999.0      -999.0      -999.0      -999.0      -999.0    
       -5.000      -5.872      -6.288      -6.509      -6.633      -6.714      -6.780      -6.849      -6.748      -999.0    
       -999.0      -999.0      -999.0      -999.0      -999.0      -999.0      -999.0      -999.0    
  57   -999.0      -999.0      -999.0      -999.0      -999.0      -999.0      -999.0      -999.0      -999.0      -999.0    
       -999.0      -999.0      -999.0      -999.0      -999.0      -999.0      -999.0      -999.0      -999.0      -999.0    
       -5.000      -5.609      -6.031      -6.307      -6.485      -6.604      -6.720      -6.776      -6.763      -999.0    
       -999.0      -999.0      -999.0      -999.0      -999.0      -999.0      -999.0      -999.0    
  58   -999.0      -999.0      -999.0      -999.0      -999.0      -999.0      -999.0      -999.0      -999.0      -999.0    
       -999.0      -999.0      -999.0      -999.0      -999.0      -999.0      -999.0      -999.0      -999.0      -999.0    
       -5.254      -5.541      -5.925      -6.208      -6.396      -6.498      -999.0      -999.0      -999.0      -999.0    
       -999.0      -999.0      -999.0      -999.0      -999.0      -999.0      -999.0      -999.0    
  59   -999.0      -999.0      -999.0      -999.0      -999.0      -999.0      -999.0      -999.0      -999.0      -999.0    
       -999.0      -999.0      -999.0      -999.0      -999.0      -999.0      -999.0      -999.0      -999.0      -5.000    
       -5.208      -5.371      -999.0      -999.0      -999.0      -999.0      -999.0      -999.0      -999.0      -999.0    
       -999.0      -999.0      -999.0      -999.0      -999.0      -999.0      -999.0      -999.0    
  60   -999.0      -999.0      -999.0      -999.0      -999.0      -999.0      -999.0      -999.0      -999.0      -999.0    
       -999.0      -999.0      -999.0      -999.0      -999.0      -999.0      -999.0      -999.0      -999.0      -999.0    
       -999.0      -999.0      -999.0      -999.0      -999.0      -999.0      -999.0      -999.0      -999.0      -999.0    
       -999.0      -999.0      -999.0      -999.0      -999.0      -999.0      -999.0      -999.0    
  61   -999.0      -999.0      -999.0      -999.0      -999.0      -999.0      -999.0      -999.0      -999.0      -999.0    
       -999.0      -999.0      -999.0      -999.0      -999.0      -999.0      -999.0      -999.0      -999.0      -999.0    
       -999.0      -999.0      -999.0      -999.0      -999.0      -999.0      -999.0      -999.0      -999.0      -999.0    
       -999.0      -999.0      -999.0      -999.0      -999.0      -999.0      -999.0      -999.0    
  62   -999.0      -999.0      -999.0      -999.0      -999.0      -999.0      -999.0      -999.0      -999.0      -999.0    
       -999.0      -999.0      -999.0      -999.0      -999.0      -999.0      -999.0      -999.0      -999.0      -999.0    
       -999.0      -999.0      -999.0      -999.0      -999.0      -999.0      -999.0      -999.0      -999.0      -999.0    
       -999.0      -999.0      -999.0      -999.0      -999.0      -999.0      -999.0      -999.0    
1
  VOLUMETRIC BUDGET FOR ENTIRE MODEL AT END OF TIME STEP  4 IN STRESS PERIOD   3
  ------------------------------------------------------------------------------

     CUMULATIVE VOLUMES      L**3       RATES FOR THIS TIME STEP      L**3/T
     ------------------                 ------------------------

           IN:                                      IN:
           ---                                      ---
             STORAGE =           0.0000               STORAGE =           0.0000
       CONSTANT HEAD =      636515.3750         CONSTANT HEAD =        9554.4443
               WELLS =           0.0000                 WELLS =           0.0000
       RIVER LEAKAGE =    11330439.0000         RIVER LEAKAGE =      161857.1562
     HEAD DEP BOUNDS =           0.0000       HEAD DEP BOUNDS =           0.0000
            RECHARGE =     5979380.0000              RECHARGE =         798.5283

            TOTAL IN =    17946334.0000              TOTAL IN =      172210.1250

          OUT:                                     OUT:
          ----                                     ----
             STORAGE =           0.0000               STORAGE =           0.0000
       CONSTANT HEAD =     9157683.0000         CONSTANT HEAD =       82210.1406
               WELLS =     8100000.0000                 WELLS =       90000.0000
       RIVER LEAKAGE =      688653.3750         RIVER LEAKAGE =           0.0000
     HEAD DEP BOUNDS =           0.0000       HEAD DEP BOUNDS =           0.0000
            RECHARGE =           0.0000              RECHARGE =           0.0000

           TOTAL OUT =    17946336.0000             TOTAL OUT =      172210.1406

            IN - OUT =          -2.0000              IN - OUT =      -1.5625E-02

 PERCENT DISCREPANCY =           0.00     PERCENT DISCREPANCY =           0.00






          TIME SUMMARY AT END OF TIME STEP   4 IN STRESS PERIOD    3
                    SECONDS     MINUTES      HOURS       DAYS        YEARS
                    -----------------------------------------------------------
   TIME STEP LENGTH 6.48000E+05  10800.      180.00      7.5000     2.05339E-02
 STRESS PERIOD TIME 2.59200E+06  43200.      720.00      30.000     8.21355E-02
         TOTAL TIME 7.77600E+06 1.29600E+05  2160.0      90.000     0.24641    
1

 DATA AT HEAD LOCATIONS

        OBSERVATION     OBSER-     SIMUL.                          WEIGHTED
   OBS#    NAME         VATION     EQUIV.    RESIDUAL  WEIGHT**.5  RESIDUAL
                          *          *
      1 hed1           -8.00      -9.65       1.65       1.96       3.23    
      2 hed2           -8.00      -7.35     -0.649       1.96      -1.27    
      3 hed3           -7.00      -6.73     -0.267       1.96     -0.524    
      4 hed4           -8.00      -6.73      -1.27       1.96      -2.48    
      5 hed5           -8.00      -7.35     -0.651       1.96      -1.28    
      6 no_hed6         0.00      -7.35       7.35      0.100E-18  0.735E-18
      7 no_hed7         0.00      -7.35       7.35      0.100E-18  0.735E-18
      8 no_hed8         0.00      -7.35       7.35      0.100E-18  0.735E-18
      9 no_hed9         0.00      -7.35       7.35      0.100E-18  0.735E-18
     10 no_hed10        0.00      -6.73       6.73      0.100E-18  0.673E-18
     11 no_hed11        0.00      -6.73       6.73      0.100E-18  0.673E-18
     12 no_hed12        0.00      -6.73       6.73      0.100E-18  0.673E-18
     13 no_hed13        0.00      -6.73       6.73      0.100E-18  0.673E-18
     14 no_hed14        0.00      -7.35       7.35      0.100E-18  0.735E-18
     15 no_hed15        0.00      -7.35       7.35      0.100E-18  0.735E-18
     16 no_hed16        0.00      -7.35       7.35      0.100E-18  0.735E-18
     17 no_hed17        0.00      -7.35       7.35      0.100E-18  0.735E-18
     18 hed18          -7.00      -9.51       2.51       1.96       4.92    
     19 hed19          -7.00      -6.32     -0.679       1.96      -1.33    
     20 hed20          -6.00      -2.75      -3.25       1.96      -6.37    
     21 hed21          -7.00      -2.75      -4.25       1.96      -8.33    
     22 hed22          -7.00      -6.31     -0.693       1.96      -1.36    
     23 no_hed23        0.00      -6.32       6.32      0.100E-18  0.632E-18
     24 no_hed24        0.00      -6.32       6.32      0.100E-18  0.632E-18
     25 no_hed25        0.00      -6.32       6.32      0.100E-18  0.632E-18
     26 no_hed26        0.00      -6.32       6.32      0.100E-18  0.632E-18
     27 no_hed27        0.00      -2.75       2.75      0.100E-18  0.275E-18
     28 no_hed28        0.00      -2.75       2.75      0.100E-18  0.275E-18
     29 no_hed29        0.00      -2.75       2.75      0.100E-18  0.275E-18
     30 no_hed30        0.00      -2.75       2.75      0.100E-18  0.275E-18
     31 no_hed31        0.00      -6.31       6.31      0.100E-18  0.631E-18
     32 no_hed32        0.00      -6.31       6.31      0.100E-18  0.631E-18
     33 no_hed33        0.00      -6.31       6.31      0.100E-18  0.631E-18
     34 no_hed34        0.00      -6.31       6.31      0.100E-18  0.631E-18
     35 hed35          -10.0      -9.95     -0.547E-01   1.96     -0.107    
     36 hed36          -10.0      -9.59     -0.410       1.96     -0.804    
     37 hed37          -9.00      -7.74      -1.26       1.96      -2.47    
     38 hed38          -10.0      -7.74      -2.26       1.96      -4.43    
     39 hed39          -10.0      -9.58     -0.418       1.96     -0.819    
     40 no_hed40        0.00      -9.59       9.59      0.100E-18  0.959E-18
     41 no_hed41        0.00      -9.59       9.59      0.100E-18  0.959E-18
     42 no_hed42        0.00      -9.59       9.59      0.100E-18  0.959E-18
     43 no_hed43        0.00      -9.59       9.59      0.100E-18  0.959E-18
     44 no_hed44        0.00      -7.74       7.74      0.100E-18  0.774E-18
     45 no_hed45        0.00      -7.74       7.74      0.100E-18  0.774E-18
     46 no_hed46        0.00      -7.74       7.74      0.100E-18  0.774E-18
     47 no_hed47        0.00      -7.74       7.74      0.100E-18  0.774E-18
     48 no_hed48        0.00      -9.58       9.58      0.100E-18  0.958E-18
     49 no_hed49        0.00      -9.58       9.58      0.100E-18  0.958E-18
     50 no_hed50        0.00      -9.58       9.58      0.100E-18  0.958E-18
     51 no_hed51        0.00      -9.58       9.58      0.100E-18  0.958E-18

 * THE OBSERVATION (AND CORRESPONDING SIMULATED EQUIVALENT) IS HEAD OR TEMPORAL
   CHANGE IN HEAD, AS SPECIFIED IN THE "HOB" INPUT FILE.  NEGATIVE TEMPORAL
   CHANGES INDICATE DRAWDOWN.

 STATISTICS FOR HEAD RESIDUALS :
 MAXIMUM WEIGHTED RESIDUAL  :  4.92     OBS#     18
 MINIMUM WEIGHTED RESIDUAL  : -8.33     OBS#     21
 AVERAGE WEIGHTED RESIDUAL  :-0.459    
 # RESIDUALS >= 0. :     38
 # RESIDUALS < 0.  :     13
 NUMBER OF RUNS  :    7  IN   51 OBSERVATIONS

 SUM OF SQUARED WEIGHTED RESIDUALS (HEADS ONLY)   184.93    

 DATA FOR FLOWS REPRESENTED USING THE RIVER PACKAGE

        OBSERVATION      MEAS.      CALC.                          WEIGHTED
   OBS#    NAME          FLOW       FLOW     RESIDUAL  WEIGHT**.5  RESIDUAL

     52 no_rivf0        1.00      0.104E+06 -0.104E+06  0.100E-18 -0.104E-13
     53 no_rivf1        1.00      0.104E+06 -0.104E+06  0.100E-18 -0.104E-13
     54 no_rivf2        1.00      0.104E+06 -0.104E+06  0.100E-18 -0.104E-13
     55 no_rivf3        1.00      0.104E+06 -0.104E+06  0.100E-18 -0.104E-13
     56 no_rivf4        1.00      0.164E+05 -0.164E+05  0.100E-18 -0.164E-14
     57 no_rivf5        1.00      0.164E+05 -0.164E+05  0.100E-18 -0.164E-14
     58 no_rivf6        1.00      0.164E+05 -0.164E+05  0.100E-18 -0.164E-14
     59 no_rivf7        1.00      0.164E+05 -0.164E+05  0.100E-18 -0.164E-14
     60 no_rivf8        1.00      0.103E+06 -0.103E+06  0.100E-18 -0.103E-13
     61 no_rivf9        1.00      0.103E+06 -0.103E+06  0.100E-18 -0.103E-13
     62 no_rivf10       1.00      0.103E+06 -0.103E+06  0.100E-18 -0.103E-13
     63 no_rivf11       1.00      0.103E+06 -0.103E+06  0.100E-18 -0.103E-13
     64 no_rivf12       1.00      0.589E+05 -0.589E+05  0.100E-18 -0.589E-14
     65 no_rivf13       1.00      0.589E+05 -0.589E+05  0.100E-18 -0.589E-14
     66 no_rivf14       1.00      0.589E+05 -0.589E+05  0.100E-18 -0.589E-14
     67 no_rivf15       1.00      0.589E+05 -0.589E+05  0.100E-18 -0.589E-14
     68 no_rivf16       1.00      0.141E+05 -0.141E+05  0.100E-18 -0.141E-14
     69 no_rivf17       1.00      0.141E+05 -0.141E+05  0.100E-18 -0.141E-14
     70 no_rivf18       1.00      0.141E+05 -0.141E+05  0.100E-18 -0.141E-14
     71 no_rivf19       1.00      0.141E+05 -0.141E+05  0.100E-18 -0.141E-14
     72 no_rivf20       1.00      0.587E+05 -0.587E+05  0.100E-18 -0.587E-14
     73 no_rivf21       1.00      0.587E+05 -0.587E+05  0.100E-18 -0.587E-14
     74 no_rivf22       1.00      0.587E+05 -0.587E+05  0.100E-18 -0.587E-14
     75 no_rivf23       1.00      0.587E+05 -0.587E+05  0.100E-18 -0.587E-14

 STATISTICS FOR RIVER FLOW RESIDUALS :
 MAXIMUM WEIGHTED RESIDUAL  :-0.141E-14 OBS#     68
 MINIMUM WEIGHTED RESIDUAL  :-0.104E-13 OBS#     55
 AVERAGE WEIGHTED RESIDUAL  :-0.591E-14
 # RESIDUALS >= 0. :      0
 # RESIDUALS < 0.  :     24
 NUMBER OF RUNS:      1  IN     24 OBSERVATIONS

 SUM OF SQUARED WEIGHTED RESIDUALS (RIVER FLOWS ONLY)  0.11495E-26

 DATA FOR FLOW OBSERVATIONS AT BOUNDARIES REPRESENTED AS CONSTANT-HEAD

       OBSERVATION      MEAS.      CALC.                          WEIGHTED
  OBS#    NAME          FLOW       FLOW     RESIDUAL  WEIGHT**.5  RESIDUAL

    76 no_chdf0        1.00     -0.724E+05  0.724E+05  0.100E-18  0.724E-14
    77 no_chdf1        1.00     -0.724E+05  0.724E+05  0.100E-18  0.724E-14
    78 no_chdf2        1.00     -0.724E+05  0.724E+05  0.100E-18  0.724E-14
    79 no_chdf3        1.00     -0.724E+05  0.724E+05  0.100E-18  0.724E-14
    80 no_chdf4        1.00     -0.139E+06  0.139E+06  0.100E-18  0.139E-13
    81 no_chdf5        1.00     -0.139E+06  0.139E+06  0.100E-18  0.139E-13
    82 no_chdf6        1.00     -0.139E+06  0.139E+06  0.100E-18  0.139E-13
    83 no_chdf7        1.00     -0.139E+06  0.139E+06  0.100E-18  0.139E-13
    84 no_chdf8        1.00     -0.727E+05  0.727E+05  0.100E-18  0.727E-14
    85 no_chdf9        1.00     -0.727E+05  0.727E+05  0.100E-18  0.727E-14
    86 no_chdf10       1.00     -0.727E+05  0.727E+05  0.100E-18  0.727E-14
    87 no_chdf11       1.00     -0.727E+05  0.727E+05  0.100E-18  0.727E-14

 STATISTICS FOR CONSTANT-HEAD BOUNDARY FLOW RESIDUALS :
 MAXIMUM WEIGHTED RESIDUAL  : 0.139E-13 OBS#     80
 MINIMUM WEIGHTED RESIDUAL  : 0.724E-14 OBS#     76
 AVERAGE WEIGHTED RESIDUAL  : 0.947E-14
 # RESIDUALS >= 0. :     12
 # RESIDUALS < 0.  :      0
 NUMBER OF RUNS  :    1  IN   12 OBSERVATIONS

 SUM OF SQUARED WEIGHTED RESIDUALS
   (CONSTANT-HEAD BOUNDARY FLOWS ONLY)  0.11936E-26

 SUM OF SQUARED WEIGHTED RESIDUALS (ALL DEPENDENT VARIABLES)   184.93    

 STATISTICS FOR ALL RESIDUALS :
 AVERAGE WEIGHTED RESIDUAL  :-0.269E+00
 # RESIDUALS >= 0. :     50
 # RESIDUALS < 0.  :     37
 NUMBER OF RUNS  :    9  IN   87 OBSERVATIONS

 INTERPRETING THE CALCULATED RUNS STATISTIC VALUE OF     -7.51    
 NOTE: THE FOLLOWING APPLIES ONLY IF 
        # RESIDUALS >= 0 . IS GREATER THAN 10 AND 
        # RESIDUALS < 0.   IS GREATER THAN 10
 THE NEGATIVE VALUE MAY INDICATE TOO FEW RUNS:
    IF THE VALUE IS LESS THAN -1.28, THERE IS LESS THAN A 10 PERCENT
       CHANCE THE VALUES ARE RANDOM,
    IF THE VALUE IS LESS THAN -1.645, THERE IS LESS THAN A 5 PERCENT
       CHANCE THE VALUES ARE RANDOM,
    IF THE VALUE IS LESS THAN -1.96, THERE IS LESS THAN A 2.5 PERCENT
       CHANCE THE VALUES ARE RANDOM.


 ORDERED DEPENDENT-VARIABLE WEIGHTED RESIDUALS
 NUMBER OF RESIDUALS INCLUDED:        87
     -8.33      -6.37      -4.43      -2.48      -2.47      -1.36      -1.33    
     -1.28      -1.27     -0.819     -0.804     -0.524     -0.107     -0.104E-13
    -0.104E-13 -0.104E-13 -0.104E-13 -0.103E-13 -0.103E-13 -0.103E-13 -0.103E-13
    -0.589E-14 -0.589E-14 -0.589E-14 -0.589E-14 -0.587E-14 -0.587E-14 -0.587E-14
    -0.587E-14 -0.164E-14 -0.164E-14 -0.164E-14 -0.164E-14 -0.141E-14 -0.141E-14
    -0.141E-14 -0.141E-14  0.275E-18  0.275E-18  0.275E-18  0.275E-18  0.631E-18
     0.631E-18  0.631E-18  0.631E-18  0.632E-18  0.632E-18  0.632E-18  0.632E-18
     0.673E-18  0.673E-18  0.673E-18  0.673E-18  0.735E-18  0.735E-18  0.735E-18
     0.735E-18  0.735E-18  0.735E-18  0.735E-18  0.735E-18  0.774E-18  0.774E-18
     0.774E-18  0.774E-18  0.958E-18  0.958E-18  0.958E-18  0.958E-18  0.959E-18
     0.959E-18  0.959E-18  0.959E-18  0.724E-14  0.724E-14  0.724E-14  0.724E-14
     0.727E-14  0.727E-14  0.727E-14  0.727E-14  0.139E-13  0.139E-13  0.139E-13
     0.139E-13   3.23       4.92    

 CORRELATION BETWEEN ORDERED WEIGHTED RESIDUALS AND NORMAL ORDER STATISTICS
 FOR OBSERVATIONS =    0.424    

 --------------------------------------------------------------------------
 COMMENTS ON THE INTERPRETATION OF THE CORRELATION BETWEEN
 WEIGHTED RESIDUALS AND NORMAL ORDER STATISTICS:

 The critical value for correlation at the 5% significance level is 0.972

 IF the reported CORRELATION is GREATER than the 5% critical value, ACCEPT
 the hypothesis that the weighted residuals are INDEPENDENT AND NORMALLY
 DISTRIBUTED at the 5% significance level.  The probability that this   
 conclusion is wrong is less than 5%.

 IF the reported correlation IS LESS THAN the 5% critical value REJECT the
 hypothesis that the weighted residuals are INDEPENDENT AND NORMALLY
 DISTRIBUTED at the 5% significance level.

 The analysis can also be done using the 10% significance level.
 The associated critical value is 0.977
 --------------------------------------------------------------------------

